<?xml version="1.0" ?>
<!--Generated Detectors-->
<additional>
   <e1Detector file="NUL" freq="1" id="63082002_2_0" lane="gneE11_0" pos="30.7"/>
   <e1Detector file="NUL" freq="1" id="63082002_2_1" lane="gneE11_1" pos="30.7"/>
   <e1Detector file="NUL" freq="1" id="63082002_11_additional" lane="gneE11_0" pos="0.2"/>
   <e1Detector file="NUL" freq="1" id="63082002_12_additional" lane="gneE11_1" pos="0.2"/>
   <e1Detector file="NUL" freq="1" id="63082002_5_0" lane="gneE11_2" pos="122.1"/>
   <e1Detector file="NUL" freq="1" id="63082002_4_0" lane="gneE0.12_0" pos="8.5"/>
   <e1Detector file="NUL" freq="1" id="63082002_6_0" lane="834845345#1_0" pos="296.7"/>
   <e1Detector file="NUL" freq="1" id="63082002_6_1" lane="834845345#1_1" pos="296.6"/>
   <e1Detector file="NUL" freq="1" id="63082002_9_additional" lane="834845345#1_0" pos="266.2"/>
   <e1Detector file="NUL" freq="1" id="63082002_10_additional" lane="834845345#1_1" pos="266.2"/>
   <e1Detector file="NUL" freq="1" id="63082003_2_0" lane="115872656#10_0" pos="0"/>
   <e1Detector file="NUL" freq="1" id="63082003_2_1" lane="115872656#10_1" pos="0"/>
   <e1Detector file="NUL" freq="1" id="63082003_11_additional" lane="115872656#9_1" pos="75.9"/>
   <e1Detector file="NUL" freq="1" id="63082003_12_additional" lane="115872656#9_2" pos="75.9"/>
   <e1Detector file="NUL" freq="1" id="63082003_5_0" lane="115872656#10.14_2" pos="56.3"/>
   <e1Detector file="NUL" freq="1" id="63082003_4_0" lane="-638636924#1.9_0" pos="40.0"/>
   <e1Detector file="NUL" freq="1" id="63082003_7_0" lane="-638636924#1.9_1" pos="40.0"/>
   <e1Detector file="NUL" freq="1" id="63082003_6_0" lane="834845345#5.74_1" pos="6.5"/>
   <e1Detector file="NUL" freq="1" id="63082003_6_1" lane="834845345#5.74_2" pos="6.5"/>
   <e1Detector file="NUL" freq="1" id="63082003_9_additional" lane="834845345#4_0" pos="50.6"/>
   <e1Detector file="NUL" freq="1" id="63082003_10_additional" lane="834845345#4_1" pos="50.6"/>
   <e1Detector file="NUL" freq="1" id="63082003_1_0" lane="834845345#5.74.43_2" pos="71.7"/>
   <e1Detector file="NUL" freq="1" id="63082003_8_0" lane="660891910#1.19_0" pos="6.1"/>
   <e1Detector file="NUL" freq="1" id="63082003_3_0" lane="660891910#1.19_1" pos="6.1"/>
   <e1Detector file="NUL" freq="1" id="63082004_2_0" lane="115872656#6_1" pos="18.0"/>
   <e1Detector file="NUL" freq="1" id="63082004_2_1" lane="115872656#6_2" pos="18.1"/>
   <e1Detector file="NUL" freq="1" id="63082004_11_additional" lane="115872656#5_1" pos="26.9"/>
   <e1Detector file="NUL" freq="1" id="63082004_12_additional" lane="115872656#5_2" pos="27.0"/>
   <e1Detector file="NUL" freq="1" id="63082004_5_0" lane="gneE22.27_2" pos="26.4"/>
   <e1Detector file="NUL" freq="1" id="63082004_7_0" lane="gneE20_0" pos="-15"/>
   <e1Detector file="NUL" freq="1" id="63082004_4_0" lane="gneE20_1" pos="-15"/>
   <e1Detector file="NUL" freq="1" id="63082004_6_0" lane="834845345#8_0" pos="25.2"/>
   <e1Detector file="NUL" freq="1" id="63082004_6_1" lane="834845345#8_1" pos="25.2"/>
   <e1Detector file="NUL" freq="1" id="63082004_9_additional" lane="834845345#8_0" pos="10.1"/>
   <e1Detector file="NUL" freq="1" id="63082004_10_additional" lane="834845345#8_1" pos="10.3"/>
   <e1Detector file="NUL" freq="1" id="63082004_1_0" lane="834845345#8.108_2" pos="10.6"/>
   <e1Detector file="NUL" freq="1" id="63082004_8_0" lane="gneE18_0" pos="7.4"/>
   <e1Detector file="NUL" freq="1" id="63082004_3_0" lane="gneE18_1" pos="7.4"/>
</additional>