<?xml version="1.0" encoding="UTF-8"?>

<!-- generated on 08/03/20 17:31:29 by Eclipse SUMO polyconvert Version 1.6.0
<configuration xmlns:xsi="http://www.w3.org/2001/XMLSchema-instance" xsi:noNamespaceSchemaLocation="http://sumo.dlr.de/xsd/polyconvertConfiguration.xsd">

    <input>
        <net-file value="osm.net.xml"/>
        <osm-files value="osm_bbox.osm.xml"/>
        <osm.keep-full-type value="true"/>
        <type-file value="C:\Program%20Files%20(x86)\Eclipse\Sumo\data\typemap\osmPolyconvert.typ.xml"/>
    </input>

    <output>
        <output-file value="osm.poly.xml"/>
    </output>

    <processing>
        <poi-layer-offset value="5"/>
    </processing>

    <report>
        <verbose value="true"/>
    </report>

</configuration>
-->

<additional xmlns:xsi="http://www.w3.org/2001/XMLSchema-instance" xsi:noNamespaceSchemaLocation="http://sumo.dlr.de/xsd/additional_file.xsd">
    <location netOffset="-311567.36,-4682276.21" convBoundary="-1968.88,-112.34,11649.07,6541.27" origBoundary="-83.309539,42.269168,-83.144444,42.329834" projParameter="+proj=utm +zone=17 +ellps=WGS84 +datum=WGS84 +units=m +no_defs"/>

    <poly id="100012130" type="amenity.parking" color="184,184,179" fill="1" layer="-1.00" shape="4360.246812,3386.690040 4355.165702,3390.468109 4355.695732,3397.776958 4314.785077,3424.619386 4281.235802,3377.441085 4271.371464,3383.144942 4292.646016,3416.477748 4279.873896,3424.847021 4275.078933,3433.551339 4249.670488,3446.975058 4233.423202,3475.348283 4126.643308,3547.547699 4123.773205,3542.856098 4118.009476,3546.074471 4105.509011,3529.612847 4087.937041,3501.283634 4092.228025,3492.559082 4086.250371,3484.815604 4081.267044,3476.301492 4087.837833,3472.717408 4085.288572,3467.995163 4292.609834,3352.262836 4307.669979,3344.633588 4326.975017,3332.792644 4360.246812,3386.690040"/>
    <poly id="100012133" type="amenity.parking" color="184,184,179" fill="1" layer="-1.00" shape="4443.533493,3412.406688 4445.826847,3407.068364 4447.957294,3402.123231 4452.798104,3394.529036 4473.448114,3409.432938 4470.478222,3414.766773 4469.612256,3416.345156 4466.398660,3421.507595 4464.649371,3424.631481 4443.533493,3412.406688"/>
    <poly id="100012142" type="building.yes" color="255,230,230" fill="1" layer="-1.00" shape="4489.330708,3391.959577 4465.717713,3357.809723 4483.999899,3337.784347 4485.185135,3339.886750 4497.007734,3358.833635 4499.513733,3361.601452 4509.618525,3378.271015 4489.330708,3391.959577"/>
    <poly id="100012143" type="building.yes" color="255,230,230" fill="1" layer="-1.00" shape="4310.912345,3552.030476 4338.715017,3534.299354 4339.231166,3535.108089 4340.583598,3535.094812 4345.935651,3531.587412 4350.341060,3528.782691 4341.192309,3515.232924 4337.510904,3517.651952 4303.075817,3540.079760 4310.912345,3552.030476"/>
    <poly id="100012144" type="building.yes" color="255,230,230" fill="1" layer="-1.00" shape="4515.212614,3351.900205 4514.013100,3348.309177 4502.198485,3329.350944 4499.300698,3323.282050 4542.216853,3299.577312 4538.216898,3292.370550 4577.092342,3270.905474 4588.822581,3291.999522 4575.706966,3299.243813 4583.896285,3313.963544 4560.096421,3327.110564 4515.212614,3351.900205"/>
    <poly id="100012148" type="amenity.parking" color="184,184,179" fill="1" layer="-1.00" shape="4305.628040,3340.064631 4294.083290,3322.610853 4289.534636,3325.619377 4279.868276,3310.905399 4058.125287,3434.417709 4058.284952,3439.236100 4066.347639,3458.514516 4070.394719,3467.497708 4286.941116,3346.855702 4286.136018,3341.954254 4286.591092,3341.064463 4287.616617,3340.537501 4290.838359,3342.286383 4294.342401,3347.561449 4305.628040,3340.064631"/>
    <poly id="100012152" type="building.yes" color="255,230,230" fill="1" layer="-1.00" shape="4497.007734,3358.833635 4514.013100,3348.309177 4502.198485,3329.350944 4485.185135,3339.886750 4497.007734,3358.833635"/>
    <poly id="100012155" type="building.yes" color="255,230,230" fill="1" layer="-1.00" shape="4367.768085,3559.805387 4377.215797,3553.634775 4380.411568,3558.484601 4383.538768,3563.236221 4374.545383,3569.117104 4373.471301,3567.478503 4370.884351,3569.168740 4377.904430,3579.874190 4372.599527,3583.291435 4369.291495,3585.478410 4363.784534,3577.111207 4338.661546,3593.538470 4332.251733,3583.772662 4356.903940,3567.635532 4350.984967,3558.656884 4354.711649,3556.392240 4360.023060,3552.908140 4366.925603,3562.905503 4368.936631,3561.585963 4367.768085,3559.805387"/>
    <poly id="100012165" type="building.yes" color="255,230,230" fill="1" layer="-1.00" shape="3980.303239,3547.850303 3968.379131,3524.462103 3958.138542,3505.496647 3956.647427,3502.746765 3960.331221,3503.872185 3963.466592,3504.845352 3965.129089,3503.134829 3966.803627,3501.568446 3968.861500,3499.836413 3970.639921,3498.456201 3972.779285,3496.999825 3974.874156,3495.733523 3976.879230,3494.502920 3979.377135,3493.192684 3982.161730,3492.119372 3984.835888,3491.237869 3987.493202,3490.656833 3991.077468,3490.507010 3993.818541,3490.601604 3996.762345,3491.190905 3999.608624,3492.149467 4001.812238,3493.136042 4003.994041,3494.234311 4005.688337,3495.300953 4007.496148,3496.920208 4009.229705,3498.852551 4010.557599,3500.728890 4011.847782,3502.739564 4013.328879,3505.423048 4014.671888,3508.187947 4015.817198,3510.335775 4016.962866,3512.183571 4018.020040,3513.489208 4018.488881,3514.065814 4020.032976,3515.380871 4021.544458,3516.396763 4023.113124,3517.077794 4025.198404,3517.956368 4023.481248,3523.235252 4025.386999,3523.874083 3980.303239,3547.850303"/>
    <poly id="100012168" type="amenity.parking" color="184,184,179" fill="1" layer="-1.00" shape="4452.798104,3394.529036 4443.068266,3388.383811 4444.728306,3384.373307 4447.983326,3379.532017 4450.424085,3376.667787 4454.143265,3372.225465 4492.778051,3394.135995 4511.954653,3383.054547 4509.618525,3378.271015 4499.513733,3361.601452 4515.212614,3351.900205 4560.096421,3327.110564 4567.934767,3341.028310 4571.736581,3351.062705 4573.456421,3366.007582 4572.851816,3376.613079 4571.801794,3387.219141 4569.742839,3393.006862 4557.730472,3400.477851 4532.935566,3417.818039 4520.097951,3397.275380 4506.679512,3403.027648 4495.338654,3408.736568 4486.752785,3408.150577 4481.168534,3412.875149 4473.448114,3409.432938 4452.798104,3394.529036"/>
    <poly id="101220887" type="landuse.research" color="194,194,130" fill="1" layer="-3.00" shape="4396.906430,3365.382065 4332.317161,3264.791875 4609.683037,3111.606653 5099.133057,2841.334943 5455.992323,2644.583278 6299.388598,2882.672644 6339.807428,2896.879710 6379.999284,2914.426411 6513.485117,2981.444910 6515.105106,2994.925863 6039.555583,3680.182111 6031.909378,3679.547596 6026.649526,3678.695455 6019.552138,3677.279966 6013.968969,3675.413961 6007.104281,3673.114600 6001.722418,3670.743337 5995.581814,3667.425091 5990.289188,3664.362584 5697.194974,3493.537966 5646.165275,3468.066070 5593.605043,3449.712652 5537.969763,3437.762428 5505.811003,3434.389750 5473.917348,3432.643741 5428.908521,3434.384729 5384.484612,3440.522139 5351.989854,3447.981861 5321.596835,3457.587008 5289.848559,3469.305596 5262.790290,3481.835237 5151.074562,3543.846707 5135.171115,3556.463165 5121.239059,3568.761448 5077.932197,3607.807233 5018.975758,3650.218348 5012.382931,3642.245774 5009.322173,3639.070048 4966.595234,3659.255673 4920.921229,3672.407087 4846.186436,3676.041016 4792.285859,3665.762540 4756.447004,3651.933396 4721.663392,3633.365339 4710.027019,3625.580709 4678.364368,3598.008236 4642.369075,3555.570586 4614.200011,3510.250000 4607.287778,3498.296971 4601.743265,3501.075822 4581.861106,3454.082475 4574.897375,3403.039131 4574.716607,3362.474296 4560.096421,3327.110564 4583.896285,3313.963544 4575.706966,3299.243813 4588.822581,3291.999522 4577.092342,3270.905474 4538.216898,3292.370550 4396.906430,3365.382065"/>
    <poly id="101222737" type="building.yes" color="255,230,230" fill="1" layer="-1.00" shape="4379.378622,3942.462311 4368.636822,3931.676771 4349.197309,3950.899561 4359.947356,3961.684856 4367.343603,3954.367956 4376.629053,3945.179121 4379.378622,3942.462311"/>
    <poly id="101222738" type="building.yes" color="255,230,230" fill="1" layer="-1.00" shape="4514.331003,3680.636006 4509.320717,3672.955727 4510.368896,3672.350417 4509.005488,3670.686051 4499.780189,3676.528411 4494.585046,3668.719646 4503.925257,3662.540909 4502.199426,3659.952647 4519.736881,3648.358569 4521.505960,3651.023483 4530.871618,3644.555207 4535.767462,3651.960704 4526.462422,3658.538504 4528.116388,3661.217550 4529.070607,3660.803610 4533.683857,3668.127621 4530.484726,3670.378336 4528.813631,3673.022346 4525.403975,3675.423039 4520.551539,3677.850458 4517.293616,3678.802627 4514.331003,3680.636006"/>
    <poly id="101222739" type="building.yes" color="255,230,230" fill="1" layer="-1.00" shape="4584.762227,3749.761041 4581.783792,3744.383175 4589.475451,3740.136794 4592.462124,3745.514447 4584.762227,3749.761041"/>
    <poly id="101222741" type="building.yes" color="255,230,230" fill="1" layer="-1.00" shape="4580.474166,3689.080181 4583.047513,3691.590681 4581.841117,3700.634069 4593.158391,3702.537541 4596.575090,3684.357782 4556.880170,3645.851153 4547.620163,3655.405736 4551.023459,3658.738969 4548.855836,3661.007076 4557.362897,3669.295748 4555.222624,3671.663143 4560.645344,3677.143591 4567.949780,3684.552629 4569.765581,3682.393759 4578.306927,3691.048247 4580.474166,3689.080181"/>
    <poly id="101222741#1" type="shop.gift" color="237,199,255" fill="1" layer="-1.00" shape="4580.474166,3689.080181 4583.047513,3691.590681 4581.841117,3700.634069 4593.158391,3702.537541 4596.575090,3684.357782 4556.880170,3645.851153 4547.620163,3655.405736 4551.023459,3658.738969 4548.855836,3661.007076 4557.362897,3669.295748 4555.222624,3671.663143 4560.645344,3677.143591 4567.949780,3684.552629 4569.765581,3682.393759 4578.306927,3691.048247 4580.474166,3689.080181"/>
    <poly id="101222742" type="building.yes" color="255,230,230" fill="1" layer="-1.00" shape="4502.264945,3776.926117 4499.928364,3773.064893 4532.688160,3753.459922 4536.846118,3750.972936 4548.329739,3744.438025 4550.712845,3748.186924 4502.264945,3776.926117"/>
    <poly id="101222743" type="building.yes" color="255,230,230" fill="1" layer="-1.00" shape="4384.036306,3911.882247 4384.854813,3911.327391 4385.541612,3912.353887 4389.327053,3909.821022 4388.640254,3908.794526 4392.709233,3906.065318 4391.764958,3904.656661 4393.094296,3903.766153 4391.300494,3901.101920 4387.695818,3895.751678 4386.463641,3896.572964 4385.854521,3895.677772 4377.067939,3901.564364 4380.140599,3906.128505 4379.159572,3906.776522 4380.163587,3908.261393 4381.013116,3909.516969 4381.993851,3908.857847 4384.036306,3911.882247"/>
    <poly id="101222745" type="building.yes" color="255,230,230" fill="1" layer="-1.00" shape="4554.409774,3771.213886 4549.820729,3762.922494 4566.946267,3752.928326 4571.697240,3761.104363 4567.926775,3763.270035 4558.386971,3768.753876 4554.409774,3771.213886"/>
    <poly id="101224295" type="building.yes" color="255,230,230" fill="1" layer="-1.00" shape="4628.550877,3910.491528 4638.599028,3903.638796 4638.195913,3903.049318 4642.579749,3900.056435 4639.561085,3895.657452 4635.169004,3898.650553 4630.692637,3892.134070 4637.532062,3887.476706 4632.618148,3880.316086 4615.738502,3891.814884 4628.550877,3910.491528"/>
    <poly id="101224313" type="shop.gift" color="237,199,255" fill="1" layer="-1.00" shape="4619.578871,3879.102196 4618.623143,3866.870808 4589.542853,3869.188800 4585.433880,3869.452091 4585.621275,3871.880687 4583.744587,3872.029896 4584.344309,3879.803626 4586.303421,3879.652256 4586.463558,3881.670427 4590.431235,3881.366393 4619.578871,3879.102196"/>
    <poly id="101224324" type="building.yes" color="255,230,230" fill="1" layer="-1.00" shape="4609.909270,3860.120943 4607.296404,3837.221110 4631.495786,3822.074640 4637.605229,3831.104063 4620.125778,3842.696347 4621.828626,3858.886216 4617.213846,3859.362760 4609.909270,3860.120943"/>
    <poly id="101224328" type="building.yes" color="255,230,230" fill="1" layer="-1.00" shape="4629.028577,3858.541929 4634.073038,3866.276944 4633.359333,3866.740127 4640.363417,3877.490672 4678.500205,3852.822873 4671.736847,3842.443789 4671.047282,3842.884111 4665.762161,3834.777572 4662.955901,3836.595682 4657.886620,3839.873198 4663.008445,3847.728437 4641.944947,3861.359175 4636.822815,3853.492846 4629.028577,3858.541929"/>
    <poly id="101228289" type="building.yes" color="255,230,230" fill="1" layer="-1.00" shape="4710.839692,3845.508405 4700.829175,3835.858859 4702.606862,3834.134385 4704.820730,3831.742882 4702.290726,3829.308989 4706.233993,3825.238727 4718.774513,3837.322178 4712.545523,3843.874711 4710.839692,3845.508405"/>
    <poly id="101228292" type="building.yes" color="255,230,230" fill="1" layer="-1.00" shape="4675.439006,3779.753406 4679.967149,3779.745874 4685.905372,3779.723620 4685.886535,3772.079123 4683.115244,3772.085066 4683.112236,3771.340647 4683.096117,3765.373976 4683.090770,3761.707188 4681.573240,3761.713615 4681.568382,3759.324683 4681.553626,3754.669181 4683.071158,3754.662754 4683.057364,3747.840406 4678.455017,3747.849880 4678.469882,3755.027781 4672.919045,3755.039889 4672.936436,3761.684352 4676.945009,3761.679321 4676.957932,3767.523845 4673.848689,3767.538646 4673.866362,3772.305191 4675.425104,3772.297682 4675.439006,3779.753406"/>
    <poly id="101228295" type="amenity.restaurant" color="237,199,199" fill="1" layer="-1.00" shape="4758.630376,3882.048070 4765.128956,3874.766242 4732.018627,3845.409157 4725.520051,3852.691014 4744.283330,3869.322938 4758.630376,3882.048070"/>
    <poly id="101228295#1" type="building.yes" color="255,230,230" fill="1" layer="-1.00" shape="4758.630376,3882.048070 4765.128956,3874.766242 4732.018627,3845.409157 4725.520051,3852.691014 4744.283330,3869.322938 4758.630376,3882.048070"/>
    <poly id="101228296" type="building.yes" color="255,230,230" fill="1" layer="-1.00" shape="4744.288248,3963.973994 4742.068221,3960.776360 4741.039172,3961.481143 4737.379429,3956.221076 4738.408479,3955.516293 4736.402945,3952.635287 4738.403931,3951.249441 4737.538279,3950.005360 4739.045201,3948.965814 4740.616899,3947.880123 4741.482550,3949.124204 4743.491780,3947.738143 4746.174648,3951.601479 4747.454562,3950.712335 4749.108770,3953.091399 4750.574662,3955.208710 4749.302700,3956.086532 4751.377076,3959.076857 4749.319266,3960.497524 4749.988066,3961.468964 4746.642103,3963.778991 4745.973302,3962.807551 4744.288248,3963.973994"/>
    <poly id="101228297" type="building.yes" color="255,230,230" fill="1" layer="-1.00" shape="4709.573711,3820.484229 4705.997762,3817.166562 4711.983566,3810.775961 4715.559514,3814.093632 4709.573711,3820.484229"/>
    <poly id="101228299" type="building.yes" color="255,230,230" fill="1" layer="-1.00" shape="4814.693443,3931.816812 4796.098946,3914.057996 4813.584177,3896.698931 4817.165370,3899.905392 4832.051165,3913.683298 4814.693443,3931.816812"/>
    <poly id="101228303" type="building.yes" color="255,230,230" fill="1" layer="-1.00" shape="4723.219328,3830.671936 4716.067159,3824.025486 4728.696353,3810.527032 4735.848231,3817.162391 4723.219328,3830.671936"/>
    <poly id="101228306" type="building.yes" color="255,230,230" fill="1" layer="-1.00" shape="4762.784224,3812.956600 4768.406042,3807.153403 4769.201416,3806.343627 4771.071318,3808.139229 4777.608962,3801.400879 4783.261329,3806.842134 4779.904308,3810.308067 4781.139723,3811.498021 4777.517387,3815.226477 4776.197219,3813.949848 4770.221741,3820.106770 4762.784224,3812.956600"/>
    <poly id="101228312" type="building.yes" color="255,230,230" fill="1" layer="-1.00" shape="4799.788121,3895.560085 4797.554513,3893.418421 4794.499859,3890.475978 4803.542821,3881.138528 4806.174298,3883.669804 4808.831083,3886.222642 4799.788121,3895.560085"/>
    <poly id="101228315" type="building.yes" color="255,230,230" fill="1" layer="-1.00" shape="4787.851538,3831.568126 4782.195704,3825.993616 4795.785332,3812.314571 4800.805812,3817.250128 4794.497312,3823.604651 4794.779105,3824.286209 4794.505734,3824.871186 4787.851538,3831.568126"/>
    <poly id="101228317" type="building.yes" color="255,230,230" fill="1" layer="-1.00" shape="4742.748949,3844.439135 4737.192481,3839.195414 4747.965240,3827.879110 4750.316606,3830.106571 4752.380160,3832.052663 4753.513465,3833.123056 4742.748949,3844.439135"/>
    <poly id="101241047" type="building.yes" color="255,230,230" fill="1" layer="-1.00" shape="5232.799943,3569.368784 5227.789078,3572.688783 5226.435138,3573.590877 5222.847172,3568.228688 5229.211980,3564.006593 5232.799943,3569.368784"/>
    <poly id="101241052" type="building.yes" color="255,230,230" fill="1" layer="-1.00" shape="4643.027062,4008.385857 4635.172319,4007.658334 4627.595274,4005.567887 4619.650474,4000.775780 4614.935440,3996.165702 4596.158468,4005.125227 4588.884588,3991.003778 4625.056633,3973.854354 4627.103832,3978.323242 4627.502010,3979.668459 4628.895976,3981.243148 4629.839412,3982.307386 4631.535437,3983.763039 4632.529875,3984.570367 4634.230450,3985.570313 4635.604622,3986.389911 4637.509313,3986.995591 4639.164402,3987.518918 4641.117768,3987.778853 4643.659547,3988.145598 4643.027062,4008.385857"/>
    <poly id="101241054" type="building.yes" color="255,230,230" fill="1" layer="-1.00" shape="4903.112493,3844.162826 4902.719358,3844.584255 4894.773566,3853.303920 4892.668266,3851.336659 4887.932438,3856.327619 4880.550062,3849.387016 4885.269695,3844.407586 4866.107700,3826.396754 4870.859439,3821.383139 4872.191673,3819.970392 4892.748864,3839.289263 4893.323893,3839.829807 4895.683861,3837.345649 4901.256400,3842.577956 4903.112493,3844.162826"/>
    <poly id="101241056" type="building.yes" color="255,230,230" fill="1" layer="-1.00" shape="4906.809766,3828.798332 4906.579393,3824.092922 4912.337499,3823.808886 4915.088792,3823.670214 4916.308119,3823.616081 4916.546437,3828.310171 4906.809766,3828.798332"/>
    <poly id="101241067" type="building.yes" color="255,230,230" fill="1" layer="-1.00" shape="5237.580899,3687.974032 5229.808464,3681.565520 5232.918888,3677.806242 5236.613635,3673.364989 5243.340762,3678.911866 5244.868433,3677.082952 5249.437540,3680.852750 5242.056578,3689.746132 5238.524538,3686.838196 5237.580899,3687.974032"/>
    <poly id="101241071" type="building.yes" color="255,230,230" fill="1" layer="-1.00" shape="5180.993224,3744.967328 5179.606699,3746.514772 5170.258874,3738.214030 5172.382546,3735.836154 5171.099184,3734.702946 5172.829990,3732.757588 5174.473029,3730.925643 5175.773747,3732.091733 5178.130077,3729.463319 5187.452595,3737.742509 5180.993224,3744.967328"/>
    <poly id="101241073" type="building.yes" color="255,230,230" fill="1" layer="-1.00" shape="4946.031760,3797.647652 4942.246473,3793.890873 4940.324252,3791.985478 4948.603550,3783.712734 4951.491292,3786.581826 4954.311056,3789.374915 4946.031760,3797.647652"/>
    <poly id="101241083" type="building.yes" color="255,230,230" fill="1" layer="-1.00" shape="5208.414921,3731.238835 5200.059366,3723.978867 5200.884286,3723.035030 5199.137421,3721.525012 5189.752148,3713.369676 5194.389489,3708.070380 5198.458139,3703.419322 5209.986971,3713.429904 5205.629995,3718.410733 5213.580616,3725.325707 5208.414921,3731.238835"/>
    <poly id="101241085" type="building.yes" color="255,230,230" fill="1" layer="-1.00" shape="4717.331518,3970.513934 4735.424755,3987.396725 4745.663443,3976.483309 4727.562545,3959.622917 4717.331518,3970.513934"/>
    <poly id="101241097" type="building.yes" color="255,230,230" fill="1" layer="-1.00" shape="5288.172725,3543.798718 5284.332379,3541.721085 5288.881925,3533.368398 5299.139432,3538.912035 5297.203007,3542.462832 5296.441881,3542.060457 5293.828463,3546.851236 5288.172725,3543.798718"/>
    <poly id="101241098" type="building.yes" color="255,230,230" fill="1" layer="-1.00" shape="4987.944509,3749.525660 4979.294935,3741.440243 4986.212801,3734.092115 4989.611775,3737.270095 4992.476872,3734.228278 4994.802004,3736.400944 4992.081500,3739.294524 4994.998725,3742.029520 4991.066106,3746.199336 4987.944509,3749.525660"/>
    <poly id="101241119" type="building.bridge" color="255,230,230" fill="1" layer="-1.00" shape="5075.814070,3683.589984 5075.515815,3682.908846 5074.717527,3681.085148 5074.059542,3679.580026 5073.559509,3678.437465 5097.252542,3668.161817 5097.585798,3668.919824 5098.621442,3671.304024 5099.507087,3673.314343 5075.814070,3683.589984"/>
    <poly id="101241140" type="building.yes" color="255,230,230" fill="1" layer="-1.00" shape="4886.408231,3821.098381 4891.155523,3816.229352 4887.262479,3812.453198 4882.506653,3817.311341 4886.408231,3821.098381"/>
    <poly id="101241144" type="building.yes" color="255,230,230" fill="1" layer="-1.00" shape="4894.176574,3813.161185 4899.555388,3807.208893 4901.016530,3808.515191 4902.595867,3806.773738 4901.134725,3805.467440 4916.292943,3788.680713 4913.665835,3786.315960 4911.393634,3784.275277 4909.998931,3785.822993 4908.774103,3784.721635 4888.044485,3807.665730 4890.589460,3810.043735 4894.176574,3813.161185"/>
    <poly id="101241173" type="building.yes" color="255,230,230" fill="1" layer="-1.00" shape="5255.166157,3628.277404 5256.929406,3626.308999 5258.398754,3627.615154 5261.572430,3624.065364 5264.291302,3626.472293 5267.905576,3622.422077 5274.213208,3628.013276 5270.310021,3632.371054 5268.283597,3630.579413 5263.635585,3635.790038 5255.166157,3628.277404"/>
    <poly id="101241178" type="building.yes" color="255,230,230" fill="1" layer="-1.00" shape="4740.281602,4037.095274 4757.909515,4040.000415 4759.962209,4027.679105 4742.334266,4024.773959 4740.281602,4037.095274"/>
    <poly id="101241180" type="building.yes" color="255,230,230" fill="1" layer="-1.00" shape="4859.416981,3885.264905 4866.600474,3877.676338 4864.528433,3875.719327 4852.224745,3864.162804 4845.041252,3871.751385 4859.416981,3885.264905"/>
    <poly id="101241183" type="building.yes" color="255,230,230" fill="1" layer="-1.00" shape="5294.189887,3579.643965 5295.927850,3577.654008 5294.881373,3576.747940 5299.222020,3571.767603 5303.424992,3575.413656 5301.246425,3577.904038 5302.242284,3578.766981 5298.350193,3583.235570 5294.189887,3579.643965"/>
    <poly id="101241190" type="building.yes" color="255,230,230" fill="1" layer="-1.00" shape="5207.127724,3596.730123 5211.578747,3593.135826 5205.127101,3585.192729 5190.707739,3596.836891 5197.167345,3604.768656 5207.127724,3596.730123"/>
    <poly id="101253166" type="leisure.sports_centre" color="207,245,201" fill="1" layer="-2.00" shape="4653.281971,2902.316202 4656.993077,2908.886108 4678.463642,2896.822830 4674.899967,2890.526848 4660.212072,2864.554230 4638.895735,2876.524624 4641.317743,2880.805914 4654.610070,2873.346045 4666.720327,2894.763633 4653.281971,2902.316202"/>
    <poly id="101253166#1" type="sport.swimming" color="79,230,125" fill="1" layer="-2.00" shape="4653.281971,2902.316202 4656.993077,2908.886108 4678.463642,2896.822830 4674.899967,2890.526848 4660.212072,2864.554230 4638.895735,2876.524624 4641.317743,2880.805914 4654.610070,2873.346045 4666.720327,2894.763633 4653.281971,2902.316202"/>
    <poly id="101255245" type="waterway.stream" color="181,209,209" fill="0" layer="-4.00" shape="4580.182505,3885.602040 4579.376623,3878.144849 4579.481937,3873.352852 4585.126449,3867.793363 4594.018143,3866.537958 4600.745821,3859.505538 4603.460930,3853.267250 4601.714832,3845.812481 4600.128114,3835.942249 4600.423011,3830.200771 4600.663382,3822.693928 4599.984040,3813.455513 4598.700502,3806.655333 4596.613501,3803.187567"/>
    <poly id="101255250" type="natural.water" color="181,209,209" fill="1" layer="-4.00" shape="4584.450697,3885.434579 4580.182505,3885.602040 4576.475972,3885.799226 4568.128776,3872.272640 4568.949682,3869.606480 4575.816206,3867.870779 4585.310680,3866.955139 4585.397781,3868.075159 4585.433880,3869.452091 4585.621275,3871.880687 4583.744587,3872.029896 4584.344309,3879.803626 4584.450697,3885.434579"/>
    <poly id="101376905" type="building.roof" color="255,230,230" fill="1" layer="-1.00" shape="4568.523166,3719.006753 4570.899576,3712.432867 4574.960674,3714.115413 4579.347605,3715.956097 4576.076787,3721.764484 4572.261139,3720.319964 4568.523166,3719.006753"/>
    <poly id="101376911" type="building.yes" color="255,230,230" fill="1" layer="-1.00" shape="4518.617319,3745.317195 4525.946990,3746.769538 4528.046858,3739.402828 4529.636827,3735.238610 4532.066013,3731.307960 4533.846109,3729.361142 4536.315864,3726.662853 4538.866906,3724.862499 4541.390309,3722.951751 4543.808417,3721.743816 4546.486508,3720.384609 4548.513041,3719.342511 4552.183960,3718.412862 4555.764500,3717.496697 4554.947454,3710.873195 4550.213012,3711.508482 4549.086956,3711.660240 4546.228484,3712.746377 4543.574043,3713.749381 4541.907951,3714.382001 4540.160216,3715.361231 4537.704969,3716.725708 4535.989624,3717.681867 4534.358655,3719.024730 4531.903815,3721.033690 4530.684492,3722.032402 4528.610770,3724.420285 4526.497292,3726.864772 4522.882770,3733.404474 4521.012221,3739.765100 4518.617319,3745.317195"/>
    <poly id="101384723" type="building.yes" color="255,230,230" fill="1" layer="-1.00" shape="4372.599527,3583.291435 4377.439338,3590.753863 4374.462274,3592.665464 4381.279251,3603.176232 4384.556346,3601.067858 4388.734621,3607.525356 4393.739478,3604.304899 4377.904430,3579.874190 4372.599527,3583.291435"/>
    <poly id="101384731" type="building.yes" color="255,230,230" fill="1" layer="-1.00" shape="4367.872595,3638.586231 4396.655025,3619.851760 4401.731440,3616.529424 4406.703033,3613.298737 4398.678106,3601.075073 4393.739478,3604.304899 4388.734621,3607.525356 4359.847331,3626.351505 4367.872595,3638.586231"/>
    <poly id="101384732" type="building.yes" color="255,230,230" fill="1" layer="-1.00" shape="4417.173718,3639.514822 4421.676533,3646.397187 4433.233221,3638.871214 4437.718369,3645.709604 4442.040194,3652.296707 4424.790286,3663.527861 4421.757029,3658.895992 4419.972742,3660.054003 4417.936442,3656.951646 4419.444844,3655.967553 4415.844535,3650.472723 4416.696048,3649.917008 4412.056391,3642.849334 4417.173718,3639.514822"/>
    <poly id="101384736" type="building.yes" color="255,230,230" fill="1" layer="-1.00" shape="4396.655025,3619.851760 4401.749067,3627.574218 4406.825187,3624.240780 4401.731440,3616.529424 4396.655025,3619.851760"/>
    <poly id="101384761" type="building.yes" color="255,230,230" fill="1" layer="-1.00" shape="4340.583598,3535.094812 4343.968326,3540.228574 4340.789837,3542.323266 4347.747623,3552.852534 4350.974984,3550.734339 4354.711649,3556.392240 4360.023060,3552.908140 4345.935651,3531.587412 4340.583598,3535.094812"/>
    <poly id="101385278" type="building.yes" color="255,230,230" fill="1" layer="-1.00" shape="4317.490480,3488.397527 4283.079446,3510.802571 4268.128053,3488.004556 4257.991945,3493.404445 4256.144166,3490.574977 4243.346623,3498.911660 4245.297405,3501.893987 4217.293620,3520.130803 4215.884307,3517.978768 4203.557078,3526.003154 4205.361615,3528.755961 4176.587499,3547.491002 4175.144039,3545.295425 4162.460048,3553.551500 4163.998268,3555.900153 4155.620710,3561.354003 4162.898928,3572.452505 4160.044094,3574.305428 4166.574815,3584.267931 4168.918511,3582.739575 4190.821546,3616.133348 4188.599459,3617.580719 4195.809004,3628.581047 4186.109806,3634.902981 4197.735866,3652.632240 4184.330112,3661.351726 4210.340060,3701.004793 4223.737521,3692.285570 4235.466104,3710.156644 4245.295076,3703.753582 4252.633051,3714.939489 4255.552623,3713.040454 4277.110878,3745.899026 4275.067243,3747.230565 4277.893993,3751.534439 4282.129990,3757.990361 4284.157430,3756.670360 4290.696064,3766.632755 4300.062743,3760.530816 4301.747125,3763.109007 4314.090210,3755.073244 4312.354043,3752.407514 4340.868208,3733.846498 4342.380146,3736.140315 4349.030183,3731.809887 4355.112563,3727.849948 4353.523237,3725.435928 4381.826510,3707.002858 4383.304594,3709.264236 4390.076283,3704.852874 4395.825999,3701.101718 4393.918586,3698.196000 4403.771852,3691.770307 4403.058560,3690.677832 4405.037459,3689.392479 4400.182709,3681.985988 4398.163178,3683.294633 4396.848702,3681.295644 4399.541022,3679.535979 4397.785264,3676.437378 4399.146454,3675.501591 4419.508512,3662.166338 4420.789816,3661.643793 4419.972742,3660.054003 4417.936442,3656.951646 4417.030275,3656.053133 4412.759434,3658.954293 4398.813128,3668.143129 4394.435937,3671.391561 4392.408162,3668.300099 4389.294206,3670.337519 4383.820590,3661.980541 4391.204587,3656.697494 4405.150617,3647.497539 4412.056391,3642.849334 4417.173718,3639.514822 4406.825187,3624.240780 4401.749067,3627.574218 4372.966367,3646.297564 4367.872595,3638.586231 4359.847331,3626.351505 4338.661546,3593.538470 4332.251733,3583.772662 4310.912345,3552.030476 4303.075817,3540.079760 4337.510904,3517.651952 4330.653235,3506.853377 4327.267608,3501.686308 4317.490480,3488.397527"/>