<?xml version="1.0" encoding="UTF-8"?>

<!-- generated on 2024-04-01 03:15:55 by Eclipse SUMO netedit Version 1.15.0
<configuration xmlns:xsi="http://www.w3.org/2001/XMLSchema-instance" xsi:noNamespaceSchemaLocation="http://sumo.dlr.de/xsd/netconvertConfiguration.xsd">

    <input>
        <sumo-net-file value="D:\RealTwin\Real-Twin Workflow Paper\sumo network\actuated signal_0326\chatt.net.xml"/>
    </input>

    <output>
        <output-file value="D:\RealTwin\Real-Twin Workflow Paper\sumo network\actuated signal_0326\chatt.net.xml"/>
    </output>

    <processing>
        <geometry.min-radius.fix.railways value="false"/>
        <geometry.max-grade.fix value="false"/>
        <offset.disable-normalization value="true"/>
        <lefthand value="0"/>
    </processing>

    <junctions>
        <no-internal-links value="true"/>
        <no-turnarounds value="true"/>
        <junctions.corner-detail value="5"/>
        <junctions.limit-turn-speed value="5.50"/>
        <rectangular-lane-cut value="1"/>
    </junctions>

    <pedestrian>
        <walkingareas value="0"/>
    </pedestrian>

</configuration>
-->

<net version="1.9" junctionCornerDetail="5" rectangularLaneCut="true" limitTurnSpeed="5.50" xmlns:xsi="http://www.w3.org/2001/XMLSchema-instance" xsi:noNamespaceSchemaLocation="http://sumo.dlr.de/xsd/net_file.xsd">

    <location netOffset="-667733.00,-3878704.47" convBoundary="0.00,0.00,1378.95,912.75" origBoundary="0.000000,0.000000,0.000000,0.000000" projParameter="+proj=utm +zone=16 +ellps=WGS84 +datum=WGS84 +units=m +no_defs          "/>

    <type id="bidirectional" priority="1" speed="1.39" disallow="pedestrian tram rail_urban rail rail_electric rail_fast ship" width="3.65"/>
    <type id="border" priority="0" speed="1.39" disallow="all" discard="1" width="0.10"/>
    <type id="driving" priority="1" speed="13.89" disallow="pedestrian tram rail_urban rail rail_electric rail_fast ship" width="3.65"/>
    <type id="entry" priority="1" speed="22.22" disallow="pedestrian tram rail_urban rail rail_electric rail_fast ship" width="3.65"/>
    <type id="exit" priority="1" speed="22.22" disallow="pedestrian tram rail_urban rail rail_electric rail_fast ship" width="3.65"/>
    <type id="median" priority="0" speed="1.39" disallow="all" discard="1" width="0.10"/>
    <type id="mwyEntry" priority="1" speed="22.22" allow="private emergency authority army vip passenger hov taxi bus coach delivery truck trailer motorcycle evehicle custom1 custom2" width="3.65"/>
    <type id="mwyExit" priority="1" speed="22.22" allow="private emergency authority army vip passenger hov taxi bus coach delivery truck trailer motorcycle evehicle custom1 custom2" width="3.65"/>
    <type id="none" priority="0" speed="1.39" disallow="all" discard="1" width="1.00"/>
    <type id="offRamp" priority="1" speed="22.22" allow="private emergency authority army vip passenger hov taxi bus coach delivery truck trailer motorcycle evehicle custom1 custom2" width="3.65"/>
    <type id="onRamp" priority="1" speed="22.22" allow="private emergency authority army vip passenger hov taxi bus coach delivery truck trailer motorcycle evehicle custom1 custom2" width="3.65"/>
    <type id="parking" priority="1" speed="1.39" disallow="pedestrian tram rail_urban rail rail_electric rail_fast ship" width="2.50"/>
    <type id="rail" priority="3" speed="33.33" allow="rail_urban rail rail_electric rail_fast" width="3.65"/>
    <type id="restricted" priority="0" speed="13.89" disallow="all" width="3.65"/>
    <type id="roadWorks" priority="0" speed="1.39" allow="authority" width="3.65"/>
    <type id="shoulder" priority="0" speed="1.39" disallow="all" discard="1" width="1.00"/>
    <type id="special1" priority="1" speed="22.22" allow="custom1" discard="1" width="3.65"/>
    <type id="special2" priority="1" speed="22.22" allow="custom2" discard="1" width="3.65"/>
    <type id="special3" priority="1" speed="22.22" allow="custom1 custom2" discard="1" width="3.65"/>
    <type id="stop" priority="1" speed="13.89" disallow="pedestrian tram rail_urban rail rail_electric rail_fast ship" width="3.65"/>
    <type id="tram" priority="2" speed="13.89" allow="tram" width="3.65"/>

    <edge id="-280" from="J4" to="2" priority="1" type="driving" shape="1050.33,359.22 1018.07,372.83">
        <lane id="-280_0" index="0" disallow="pedestrian tram rail_urban rail rail_electric rail_fast ship" speed="15.74" length="46.03" width="3.20" shape="1049.75,368.15 1024.13,378.96"/>
        <lane id="-280_1" index="1" disallow="pedestrian tram rail_urban rail rail_electric rail_fast ship" speed="15.74" length="46.03" width="3.20" shape="1048.51,365.20 1022.89,376.01" type="driving"/>
        <lane id="-280_2" index="2" disallow="pedestrian tram rail_urban rail rail_electric rail_fast ship" speed="15.74" length="46.03" width="3.20" shape="1047.27,362.25 1021.64,373.06" type="driving"/>
    </edge>
    <edge id="-2801" from="1" to="J4" priority="1" type="driving" shape="1378.95,222.20 1276.06,264.00 1274.67,264.58 1186.79,301.66 1185.27,302.30 1183.50,303.04 1181.56,303.86 1179.53,304.71 1177.51,305.57 1175.57,306.39 1173.80,307.13 1172.28,307.77 1134.97,323.52 1133.45,324.16 1131.68,324.90 1129.74,325.72 1127.71,326.57 1125.69,327.43 1123.75,328.25 1121.98,328.99 1120.46,329.63 1119.11,330.20 1117.76,330.78 1116.24,331.42 1114.47,332.16 1112.53,332.98 1110.50,333.83 1108.48,334.69 1106.54,335.51 1104.77,336.25 1103.25,336.89 1050.33,359.22">
        <lane id="-2801_0" index="0" disallow="pedestrian tram rail_urban rail rail_electric rail_fast ship" speed="15.74" length="356.05" width="3.20" shape="1380.76,226.65 1277.87,268.45 1276.53,269.01 1188.66,306.08 1187.13,306.73 1185.36,307.46 1183.42,308.28 1181.40,309.13 1179.38,309.99 1177.43,310.81 1175.66,311.56 1174.15,312.19 1136.84,327.94 1135.31,328.59 1133.54,329.32 1131.60,330.14 1129.58,330.99 1127.56,331.85 1125.61,332.67 1123.84,333.42 1122.32,334.05 1120.99,334.62 1119.64,335.20 1118.10,335.85 1116.33,336.58 1114.39,337.40 1112.37,338.25 1110.35,339.11 1108.40,339.93 1106.63,340.68 1105.12,341.31 1055.88,362.09"/>
        <lane id="-2801_1" index="1" disallow="pedestrian tram rail_urban rail rail_electric rail_fast ship" speed="15.74" length="356.05" width="3.20" shape="1379.55,223.68 1276.66,265.48 1275.29,266.06 1187.41,303.13 1185.89,303.78 1184.12,304.51 1182.18,305.33 1180.15,306.18 1178.13,307.04 1176.19,307.86 1174.42,308.61 1172.90,309.24 1135.59,324.99 1134.07,325.64 1132.30,326.37 1130.36,327.19 1128.33,328.04 1126.31,328.90 1124.37,329.72 1122.60,330.47 1121.08,331.10 1119.74,331.67 1118.39,332.25 1116.86,332.90 1115.09,333.63 1113.15,334.45 1111.12,335.30 1109.10,336.16 1107.16,336.98 1105.39,337.73 1103.87,338.36 1054.64,359.14" type="driving"/>
    </edge>
    <edge id="-281" from="3" to="4" priority="1" type="driving" shape="860.52,439.21 830.08,451.88">
        <lane id="-281_0" index="0" disallow="pedestrian tram rail_urban rail rail_electric rail_fast ship" speed="15.74" length="47.29" width="3.20" shape="862.06,450.70 834.38,462.22"/>
        <lane id="-281_1" index="1" disallow="pedestrian tram rail_urban rail rail_electric rail_fast ship" speed="15.74" length="47.29" width="3.20" shape="860.83,447.75 833.15,459.27"/>
        <lane id="-281_2" index="2" disallow="pedestrian tram rail_urban rail rail_electric rail_fast ship" speed="15.74" length="47.29" width="3.20" shape="859.60,444.79 831.92,456.31" type="driving"/>
        <lane id="-281_3" index="3" disallow="pedestrian tram rail_urban rail rail_electric rail_fast ship" speed="15.74" length="47.29" width="3.20" shape="858.37,441.84 830.69,453.36" type="driving"/>
    </edge>
    <edge id="-282" from="3" to="5" priority="1" type="driving" shape="861.86,423.95 858.88,417.06">
        <lane id="-282_0" index="0" disallow="pedestrian tram rail_urban rail rail_electric rail_fast ship" speed="23.33" length="22.45" width="3.20" shape="860.39,424.59 857.08,416.94" type="driving"/>
    </edge>
    <edge id="-283" from="3" to="6" priority="1" type="driving" shape="872.59,448.93 883.90,475.46 884.55,476.96 885.32,478.76 886.09,480.56 886.71,482.06 887.30,483.52 887.97,485.19 888.70,487.03 889.47,488.97 890.27,490.97 891.06,492.96 891.82,494.90 892.55,496.74 893.21,498.41 893.79,499.87 901.06,518.15">
        <lane id="-283_0" index="0" disallow="pedestrian tram rail_urban rail rail_electric rail_fast ship" speed="23.33" length="89.53" width="3.20" shape="875.29,451.18 885.37,474.83 886.02,476.33 886.79,478.13 887.56,479.94 888.19,481.45 888.78,482.92 889.46,484.60 890.19,486.44 890.96,488.38 891.76,490.38 892.55,492.37 893.31,494.31 894.04,496.15 894.70,497.82 895.28,499.28 902.88,518.39" type="driving"/>
    </edge>
    <edge id="-284" from="3" to="7" priority="1" type="driving" shape="873.92,433.59 913.45,416.92 914.90,416.31 916.62,415.59 918.48,414.80 920.41,414.00 922.27,413.21 923.99,412.49 925.43,411.87 926.84,411.28 928.53,410.57 930.32,409.81 932.02,409.10 933.43,408.50 946.91,402.85">
        <lane id="-284_0" index="0" disallow="pedestrian tram rail_urban rail rail_electric rail_fast ship" speed="15.74" length="93.49" width="3.20" shape="873.64,425.03 910.34,409.55 911.80,408.93 913.51,408.22 915.39,407.42 917.32,406.62 919.16,405.84 920.87,405.12 922.30,404.51 923.75,403.90 925.42,403.20 927.21,402.44 928.91,401.73 930.33,401.12 943.82,395.47" type="driving"/>
        <lane id="-284_1" index="1" disallow="pedestrian tram rail_urban rail rail_electric rail_fast ship" speed="15.74" length="93.49" width="3.20" shape="874.88,427.97 911.59,412.50 913.04,411.88 914.75,411.17 916.62,410.37 918.55,409.57 920.40,408.79 922.12,408.07 923.55,407.45 924.98,406.85 926.66,406.15 928.46,405.39 930.16,404.68 931.57,404.07 945.06,398.42" type="driving"/>
        <lane id="-284_2" index="2" disallow="pedestrian tram rail_urban rail rail_electric rail_fast ship" speed="15.74" length="93.49" width="3.20" shape="876.13,430.92 912.83,415.45 914.28,414.83 916.00,414.12 917.86,413.32 919.79,412.52 921.65,411.74 923.37,411.02 924.80,410.40 926.22,409.80 927.91,409.10 929.70,408.34 931.40,407.63 932.81,407.02 946.29,401.37" type="driving"/>
    </edge>
    <edge id="-285" from="J0" to="9" priority="1" type="driving" shape="439.78,623.60 387.66,643.31">
        <lane id="-285_0" index="0" disallow="pedestrian tram rail_urban rail rail_electric rail_fast ship" speed="17.90" length="65.67" width="3.20" shape="440.00,635.49 393.60,653.04" type="driving"/>
        <lane id="-285_1" index="1" disallow="pedestrian tram rail_urban rail rail_electric rail_fast ship" speed="17.90" length="65.67" width="3.20" shape="438.86,632.50 392.47,650.05"/>
        <lane id="-285_2" index="2" disallow="pedestrian tram rail_urban rail rail_electric rail_fast ship" speed="17.90" length="65.67" width="3.20" shape="437.73,629.51 391.33,647.05"/>
        <lane id="-285_3" index="3" disallow="pedestrian tram rail_urban rail rail_electric rail_fast ship" speed="17.90" length="65.67" width="3.20" shape="436.60,626.51 390.20,644.06" type="driving"/>
    </edge>
    <edge id="-2851" from="8" to="J0" priority="1" type="driving" shape="549.00,573.77 542.78,576.44 541.27,577.09 539.52,577.83 537.60,578.65 535.57,579.51 533.52,580.38 531.49,581.24 529.57,582.05 527.82,582.79 526.30,583.43 524.85,584.04 523.13,584.76 521.25,585.54 519.32,586.34 517.44,587.13 515.73,587.85 514.28,588.48 512.77,589.14 511.03,589.91 509.12,590.76 507.12,591.65 505.08,592.57 503.08,593.47 501.18,594.34 499.46,595.15 497.97,595.85 479.43,604.86 477.95,605.58 476.24,606.42 474.37,607.35 472.41,608.33 470.41,609.33 468.45,610.32 466.58,611.25 464.88,612.11 463.41,612.85 462.15,613.50 460.64,614.29 459.12,615.08 457.85,615.70 456.36,616.39 454.63,617.19 452.74,618.06 450.74,618.97 448.71,619.89 446.70,620.78 444.79,621.61 443.04,622.35 441.51,622.95 439.78,623.60">
        <lane id="-2851_0" index="0" disallow="pedestrian tram rail_urban rail rail_electric rail_fast ship" speed="17.90" length="128.42" width="3.20" shape="552.16,581.12 545.94,583.79 544.41,584.45 542.65,585.19 540.73,586.01 538.69,586.88 536.64,587.75 534.61,588.61 532.68,589.42 530.93,590.16 529.40,590.80 527.95,591.42 526.21,592.14 524.31,592.93 522.40,593.72 520.54,594.50 518.87,595.21 517.48,595.81 515.99,596.46 514.28,597.22 512.37,598.07 510.39,598.95 508.37,599.86 506.39,600.75 504.55,601.60 502.87,602.39 501.42,603.07 482.93,612.06 481.46,612.77 479.79,613.59 477.94,614.51 475.99,615.49 474.00,616.48 472.04,617.47 470.17,618.40 468.48,619.25 467.04,619.98 465.84,620.60 464.34,621.38 462.73,622.22 461.28,622.93 459.72,623.65 457.98,624.45 456.07,625.33 454.05,626.25 451.98,627.19 449.91,628.11 447.94,628.96 446.27,629.67" type="driving"/>
        <lane id="-2851_1" index="1" disallow="pedestrian tram rail_urban rail rail_electric rail_fast ship" speed="17.90" length="128.42" width="3.20" shape="550.89,578.18 544.67,580.85 543.15,581.51 541.40,582.25 539.48,583.07 537.44,583.93 535.39,584.80 533.36,585.66 531.44,586.47 529.69,587.21 528.16,587.85 526.71,588.47 524.98,589.19 523.09,589.97 521.17,590.77 519.30,591.55 517.62,592.26 516.20,592.88 514.70,593.53 512.98,594.30 511.07,595.15 509.08,596.03 507.05,596.95 505.06,597.84 503.20,598.69 501.50,599.49 500.04,600.18 481.53,609.18 480.06,609.89 478.37,610.72 476.51,611.65 474.56,612.62 472.57,613.62 470.60,614.61 468.73,615.54 467.04,616.40 465.59,617.13 464.36,617.76 462.86,618.55 461.29,619.36 459.91,620.04 458.38,620.75 456.64,621.55 454.74,622.42 452.72,623.34 450.67,624.27 448.63,625.18 446.68,626.02 445.02,626.72" type="driving"/>
        <lane id="-2851_2" index="2" disallow="pedestrian tram rail_urban rail rail_electric rail_fast ship" speed="17.90" length="128.42" width="3.20" shape="549.63,575.24 543.41,577.91 541.90,578.56 540.15,579.30 538.23,580.12 536.19,580.98 534.14,581.85 532.11,582.71 530.19,583.52 528.44,584.26 526.92,584.90 525.47,585.52 523.75,586.24 521.86,587.02 519.94,587.82 518.06,588.60 516.36,589.32 514.92,589.95 513.41,590.60 511.68,591.37 509.77,592.22 507.77,593.11 505.74,594.03 503.74,594.93 501.85,595.79 500.14,596.60 498.66,597.29 480.13,606.30 478.65,607.02 476.95,607.85 475.08,608.78 473.13,609.76 471.13,610.76 469.17,611.75 467.30,612.68 465.60,613.54 464.14,614.28 462.89,614.92 461.38,615.71 459.84,616.51 458.54,617.15 457.03,617.84 455.30,618.64 453.41,619.51 451.40,620.43 449.36,621.35 447.34,622.25 445.42,623.08 443.78,623.77" type="driving"/>
    </edge>
    <edge id="-286" from="8" to="10" priority="1" type="driving" shape="566.15,566.13 629.24,536.05">
        <lane id="-286_0" index="0" disallow="pedestrian tram rail_urban rail rail_electric rail_fast ship" speed="15.74" length="90.58" width="3.20" shape="560.54,552.85 622.15,523.48"/>
        <lane id="-286_1" index="1" disallow="pedestrian tram rail_urban rail rail_electric rail_fast ship" speed="15.74" length="90.58" width="3.20" shape="561.92,555.74 623.52,526.37"/>
        <lane id="-286_2" index="2" disallow="pedestrian tram rail_urban rail rail_electric rail_fast ship" speed="15.74" length="90.58" width="3.20" shape="563.30,558.63 624.90,529.26" type="driving"/>
        <lane id="-286_3" index="3" disallow="pedestrian tram rail_urban rail rail_electric rail_fast ship" speed="15.74" length="90.58" width="3.20" shape="564.67,561.52 626.28,532.14"/>
        <lane id="-286_4" index="4" disallow="pedestrian tram rail_urban rail rail_electric rail_fast ship" speed="15.74" length="90.58" width="3.20" shape="566.05,564.40 627.66,535.03" type="driving"/>
    </edge>
    <edge id="-287" from="8" to="287.end" priority="1" type="driving" shape="562.35,582.66 562.43,582.84 563.03,584.25 563.73,585.91 564.50,587.73 565.29,589.59 566.05,591.41 566.76,593.07 567.35,594.47 637.19,759.55 637.81,761.00 638.53,762.62 639.32,764.39 640.18,766.26 641.07,768.20 641.99,770.18 642.93,772.15 643.85,774.08 644.75,775.93 645.60,777.67 646.39,779.25 647.11,780.65 662.21,809.77 662.95,811.15 663.81,812.69 664.79,814.36 665.84,816.12 666.95,817.94 668.11,819.79 669.28,821.62 670.45,823.41 671.59,825.11 672.68,826.71 673.70,828.15 674.64,829.41 737.03,911.54">
        <lane id="-287_0" index="0" disallow="pedestrian tram rail_urban rail rail_electric rail_fast ship" speed="23.33" length="387.92" width="3.20" shape="568.04,583.77 568.15,584.04 568.92,585.86 569.71,587.73 570.47,589.54 571.18,591.19 571.77,592.60 641.61,757.68 642.21,759.08 642.91,760.67 643.69,762.41 644.54,764.26 645.43,766.19 646.33,768.14 647.26,770.08 648.17,772.00 649.06,773.83 649.90,775.54 650.67,777.08 651.37,778.45 666.47,807.56 667.16,808.84 667.97,810.30 668.92,811.92 669.95,813.64 671.03,815.42 672.17,817.22 673.31,819.01 674.45,820.76 675.57,822.42 676.62,823.97 677.58,825.33 678.47,826.52 740.85,908.64" type="driving"/>
        <lane id="-287_1" index="1" disallow="pedestrian tram rail_urban rail rail_electric rail_fast ship" speed="23.33" length="387.92" width="3.20" shape="565.09,585.01 565.20,585.29 565.97,587.11 566.76,588.97 567.52,590.79 568.23,592.44 568.82,593.85 638.66,758.93 639.28,760.36 639.99,761.97 640.78,763.73 641.63,765.59 642.52,767.53 643.44,769.50 644.37,771.46 645.29,773.39 646.19,775.23 647.03,776.96 647.82,778.53 648.53,779.92 663.63,809.03 664.35,810.38 665.20,811.89 666.17,813.55 667.21,815.29 668.31,817.10 669.46,818.93 670.62,820.75 671.78,822.53 672.92,824.21 673.99,825.80 674.99,827.21 675.92,828.45 738.30,910.57" type="driving"/>
    </edge>
    <edge id="-288" from="9" to="8" priority="1" type="driving" shape="387.66,643.31 441.51,622.95 443.04,622.35 444.79,621.61 446.70,620.78 448.71,619.89 450.74,618.97 452.74,618.06 454.63,617.19 456.36,616.39 457.85,615.70 459.12,615.08 460.64,614.29 462.15,613.50 463.41,612.85 464.88,612.11 466.58,611.25 468.45,610.32 470.41,609.33 472.41,608.33 474.37,607.35 476.24,606.42 477.95,605.58 479.43,604.86 497.97,595.85 499.46,595.15 501.18,594.34 503.08,593.47 505.08,592.57 507.12,591.65 509.12,590.76 511.03,589.91 512.77,589.14 514.28,588.48 515.73,587.85 517.44,587.13 519.32,586.34 521.25,585.54 523.13,584.76 524.85,584.04 526.30,583.43 527.82,582.79 529.57,582.05 531.49,581.24 533.52,580.38 535.57,579.51 537.60,578.65 539.52,577.83 541.27,577.09 542.78,576.44 549.00,573.77">
        <lane id="-288_0" index="0" disallow="pedestrian tram rail_urban rail rail_electric rail_fast ship" speed="17.90" length="194.09" width="3.20" shape="386.81,635.08 438.68,615.47 440.01,614.94 441.64,614.26 443.49,613.45 445.44,612.59 447.43,611.69 449.41,610.79 451.28,609.93 453.00,609.13 454.42,608.47 455.51,607.94 456.94,607.20 458.46,606.40 459.78,605.72 461.28,604.97 462.99,604.10 464.86,603.17 466.82,602.18 468.83,601.17 470.80,600.19 472.69,599.25 474.44,598.39 475.93,597.66 494.48,588.65 496.05,587.91 497.81,587.08 499.77,586.19 501.79,585.28 503.85,584.35 505.87,583.45 507.78,582.60 509.55,581.82 511.08,581.15 512.59,580.49 514.34,579.76 516.24,578.96 518.19,578.15 520.05,577.38 521.75,576.66 523.20,576.06 524.71,575.42 526.46,574.68 528.37,573.87 530.40,573.01 532.45,572.14 534.47,571.29 536.39,570.47 538.13,569.73 539.62,569.09 545.84,566.42" type="driving"/>
        <lane id="-288_1" index="1" disallow="pedestrian tram rail_urban rail rail_electric rail_fast ship" speed="17.90" length="194.09" width="3.20" shape="387.94,638.07 439.81,618.46 441.22,617.91 442.90,617.20 444.77,616.38 446.75,615.51 448.76,614.60 450.74,613.70 452.62,612.83 454.34,612.03 455.79,611.36 456.95,610.80 458.42,610.03 459.94,609.24 461.23,608.57 462.72,607.82 464.43,606.96 466.30,606.03 468.25,605.04 470.26,604.04 472.23,603.05 474.11,602.12 475.84,601.27 477.33,600.54 495.88,591.53 497.42,590.81 499.16,589.99 501.10,589.10 503.11,588.19 505.16,587.27 507.17,586.37 509.08,585.52 510.84,584.75 512.36,584.08 513.84,583.44 515.58,582.71 517.47,581.91 519.41,581.11 521.28,580.33 522.99,579.61 524.44,579.01 525.95,578.37 527.70,577.63 529.62,576.82 531.65,575.96 533.70,575.09 535.72,574.23 537.64,573.41 539.39,572.67 540.89,572.03 547.11,569.36" type="driving"/>
        <lane id="-288_2" index="2" disallow="pedestrian tram rail_urban rail rail_electric rail_fast ship" speed="17.90" length="194.09" width="3.20" shape="389.07,641.07 440.94,621.45 442.43,620.87 444.16,620.14 446.06,619.31 448.06,618.43 450.08,617.51 452.07,616.61 453.96,615.74 455.69,614.94 457.16,614.25 458.40,613.65 459.90,612.87 461.41,612.08 462.68,611.42 464.16,610.68 465.86,609.82 467.73,608.89 469.69,607.90 471.69,606.90 473.66,605.92 475.53,604.99 477.25,604.14 478.73,603.42 497.27,594.41 498.78,593.70 500.51,592.89 502.42,592.01 504.42,591.11 506.47,590.19 508.47,589.30 510.38,588.45 512.13,587.68 513.64,587.01 515.10,586.38 516.82,585.66 518.70,584.86 520.64,584.06 522.51,583.28 524.23,582.56 525.68,581.96 527.20,581.32 528.95,580.58 530.87,579.77 532.90,578.91 534.95,578.04 536.97,577.18 538.89,576.36 540.64,575.62 542.15,574.97 548.37,572.30" type="driving"/>
    </edge>
    <edge id="-289" from="9" to="289.end" priority="1" type="driving" shape="368.34,636.18 367.64,635.11 366.79,633.78 365.87,632.27 364.89,630.61 363.88,628.83 362.84,626.96 361.81,625.05 360.79,623.13 359.81,621.23 358.89,619.40 358.04,617.66 357.29,616.06 356.66,614.62 276.37,426.03 275.74,424.60 275.00,422.99 274.17,421.24 273.27,419.39 272.32,417.48 271.33,415.54 270.33,413.61 269.33,411.72 268.36,409.91 267.42,408.22 266.54,406.69 265.74,405.34 246.37,373.50">
        <lane id="-289_0" index="0" disallow="pedestrian tram rail_urban rail rail_electric rail_fast ship" speed="23.33" length="305.26" width="3.20" shape="364.32,638.81 363.61,637.71 362.72,636.32 361.75,634.74 360.74,633.01 359.69,631.18 358.63,629.27 357.58,627.32 356.54,625.36 355.53,623.41 354.59,621.53 353.71,619.73 352.92,618.04 352.25,616.52 271.95,427.91 271.36,426.57 270.65,425.02 269.84,423.32 268.96,421.51 268.03,419.64 267.06,417.74 266.08,415.84 265.09,413.98 264.15,412.21 263.24,410.58 262.39,409.11 261.62,407.81 242.27,375.99"/>
        <lane id="-289_1" index="1" disallow="pedestrian tram rail_urban rail rail_electric rail_fast ship" speed="23.33" length="305.26" width="3.20" shape="367.00,637.06 366.30,635.98 365.43,634.63 364.50,633.09 363.51,631.41 362.48,629.61 361.44,627.73 360.40,625.81 359.37,623.87 358.38,621.96 357.46,620.11 356.60,618.35 355.83,616.72 355.19,615.25 274.90,426.66 274.28,425.26 273.55,423.67 272.73,421.93 271.83,420.10 270.89,418.20 269.91,416.27 268.91,414.35 267.92,412.47 266.96,410.68 266.03,409.01 265.16,407.50 264.37,406.16 245.00,374.33" type="driving"/>
    </edge>
    <edge id="-290" from="9" to="11" priority="1" type="driving" shape="367.73,650.80 346.58,658.64">
        <lane id="-290_0" index="0" disallow="pedestrian tram rail_urban rail rail_electric rail_fast ship" speed="20.25" length="40.59" width="3.20" shape="367.42,659.45 349.36,666.14"/>
        <lane id="-290_1" index="1" disallow="pedestrian tram rail_urban rail rail_electric rail_fast ship" speed="20.25" length="40.59" width="3.20" shape="366.31,656.45 348.25,663.14" type="driving"/>
        <lane id="-290_2" index="2" disallow="pedestrian tram rail_urban rail rail_electric rail_fast ship" speed="20.25" length="40.59" width="3.20" shape="365.20,653.44 347.14,660.14" type="driving"/>
    </edge>
    <edge id="-291" from="291.begin" to="291.end" priority="1" type="driving" shape="679.70,870.20 613.15,787.41 612.18,786.20 611.09,784.87 609.91,783.42 608.65,781.88 607.33,780.28 605.98,778.63 604.60,776.96 603.22,775.30 601.85,773.65 600.52,772.06 599.24,770.54 598.04,769.10 596.93,767.79 595.93,766.61 478.28,628.68 477.28,627.51 476.16,626.20 474.94,624.77 473.65,623.26 472.31,621.68 470.92,620.06 469.52,618.41 468.11,616.76 466.73,615.14 465.38,613.56 464.09,612.05 462.88,610.62 461.76,609.31 460.76,608.14 430.96,573.21 429.96,572.04 428.84,570.73 427.63,569.31 426.33,567.80 424.98,566.22 423.60,564.60 422.19,562.95 420.78,561.31 419.39,559.69 418.04,558.11 416.75,556.60 415.53,555.18 414.41,553.88 413.40,552.71 253.85,367.09">
        <lane id="-291_0" index="0" disallow="pedestrian tram rail_urban rail rail_electric rail_fast ship" speed="27.00" length="659.19" width="3.20" shape="673.46,875.21 606.91,792.42 605.97,791.24 604.89,789.93 603.71,788.48 602.47,786.96 601.15,785.36 599.80,783.71 598.44,782.07 597.07,780.41 595.70,778.77 594.39,777.20 593.11,775.68 591.91,774.25 590.83,772.96 589.84,771.79 472.19,633.87 471.20,632.71 470.08,631.40 468.86,629.96 467.56,628.45 466.22,626.87 464.83,625.25 463.43,623.60 462.02,621.95 460.64,620.33 459.30,618.76 458.00,617.23 456.79,615.80 455.68,614.51 454.67,613.33 424.87,578.40 423.88,577.24 422.75,575.92 421.55,574.51 420.26,573.01 418.89,571.41 417.51,569.79 416.12,568.16 414.71,566.52 413.31,564.89 411.96,563.31 410.67,561.80 409.47,560.40 408.35,559.10 407.34,557.93 247.78,372.30" type="driving"/>
        <lane id="-291_1" index="1" disallow="pedestrian tram rail_urban rail rail_electric rail_fast ship" speed="27.00" length="659.19" width="3.20" shape="675.96,873.21 609.41,790.42 608.45,789.22 607.37,787.91 606.19,786.45 604.94,784.93 603.62,783.33 602.27,781.68 600.90,780.02 599.53,778.37 598.16,776.72 596.84,775.15 595.56,773.62 594.36,772.19 593.27,770.89 592.27,769.72 474.63,631.80 473.63,630.63 472.51,629.32 471.29,627.89 469.99,626.37 468.66,624.80 467.27,623.18 465.87,621.52 464.46,619.88 463.08,618.26 461.73,616.68 460.43,615.16 459.22,613.73 458.11,612.43 457.11,611.26 427.31,576.33 426.31,575.16 425.19,573.85 423.98,572.43 422.69,570.92 421.33,569.34 419.95,567.72 418.55,566.07 417.14,564.44 415.74,562.81 414.39,561.23 413.10,559.72 411.89,558.31 410.77,557.01 409.76,555.84 250.21,370.22" type="driving"/>
        <lane id="-291_2" index="2" disallow="pedestrian tram rail_urban rail rail_electric rail_fast ship" speed="27.00" length="659.19" width="3.20" shape="678.45,871.20 611.90,788.41 610.94,787.21 609.85,785.88 608.67,784.43 607.41,782.90 606.09,781.30 604.74,779.65 603.37,777.98 601.99,776.32 600.62,774.67 599.29,773.09 598.01,771.57 596.81,770.13 595.71,768.82 594.71,767.65 477.06,629.72 476.06,628.55 474.94,627.24 473.72,625.81 472.43,624.30 471.09,622.72 469.70,621.10 468.30,619.45 466.89,617.80 465.51,616.18 464.16,614.60 462.87,613.09 461.66,611.66 460.54,610.35 459.54,609.18 429.74,574.25 428.74,573.08 427.62,571.77 426.41,570.35 425.12,568.84 423.76,567.26 422.38,565.64 420.98,563.99 419.57,562.35 418.17,560.73 416.82,559.15 415.53,557.64 414.32,556.22 413.20,554.92 412.19,553.75 252.64,368.13" type="driving"/>
    </edge>
    <edge id="-292" from="292.begin" to="9" priority="1" type="driving" shape="672.07,876.35 642.66,848.42 641.52,847.35 640.22,846.14 638.80,844.82 637.28,843.43 635.70,841.99 634.09,840.52 632.47,839.06 630.88,837.63 629.34,836.26 627.89,834.97 626.56,833.80 625.37,832.77 584.06,797.10 582.86,796.08 581.50,794.94 580.01,793.71 578.41,792.41 576.74,791.08 575.04,789.72 573.32,788.37 571.64,787.06 570.01,785.80 568.46,784.63 567.04,783.57 565.78,782.64 472.23,715.05 470.96,714.13 469.52,713.09 467.95,711.96 466.28,710.75 464.55,709.50 462.78,708.22 461.01,706.94 459.28,705.69 457.61,704.49 456.04,703.35 454.60,702.31 453.32,701.39 390.56,656.05">
        <lane id="-292_0" index="0" disallow="pedestrian tram rail_urban rail rail_electric rail_fast ship" speed="23.33" length="372.70" width="3.20" shape="666.56,882.15 637.15,854.22 636.06,853.20 634.77,852.00 633.38,850.70 631.89,849.34 630.31,847.90 628.72,846.45 627.12,845.01 625.55,843.59 624.02,842.24 622.59,840.96 621.30,839.83 620.14,838.82 578.83,803.16 577.70,802.19 576.38,801.09 574.94,799.90 573.40,798.64 571.75,797.33 570.07,795.99 568.39,794.67 566.73,793.38 565.15,792.16 563.66,791.03 562.27,789.99 561.06,789.10 467.54,721.53 466.27,720.61 464.84,719.58 463.27,718.45 461.59,717.23 459.86,715.98 458.09,714.70 456.32,713.42 454.60,712.18 452.93,710.98 451.35,709.83 449.92,708.80 448.64,707.88 388.98,664.78" type="driving"/>
        <lane id="-292_1" index="1" disallow="pedestrian tram rail_urban rail rail_electric rail_fast ship" speed="23.33" length="372.70" width="3.20" shape="668.76,879.83 639.36,851.90 638.24,850.86 636.95,849.65 635.55,848.35 634.04,846.97 632.47,845.54 630.87,844.08 629.26,842.63 627.68,841.21 626.15,839.85 624.71,838.56 623.40,837.42 622.23,836.40 580.92,800.73 579.76,799.75 578.43,798.63 576.97,797.42 575.40,796.15 573.75,794.83 572.06,793.48 570.36,792.15 568.70,790.85 567.10,789.61 565.58,788.47 564.18,787.42 562.95,786.52 469.42,718.94 468.15,718.02 466.71,716.98 465.14,715.85 463.47,714.64 461.74,713.39 459.97,712.11 458.20,710.83 456.47,709.58 454.80,708.38 453.22,707.24 451.79,706.20 450.51,705.28 390.85,662.18"/>
        <lane id="-292_2" index="2" disallow="pedestrian tram rail_urban rail rail_electric rail_fast ship" speed="23.33" length="372.70" width="3.20" shape="670.97,877.51 641.56,849.58 640.43,848.52 639.13,847.31 637.72,846.00 636.20,844.61 634.62,843.17 633.02,841.71 631.40,840.25 629.81,838.82 628.28,837.46 626.83,836.17 625.51,835.01 624.32,833.98 583.01,798.31 581.83,797.30 580.48,796.17 579.00,794.95 577.41,793.66 575.74,792.33 574.05,790.97 572.33,789.63 570.66,788.32 569.04,787.07 567.50,785.91 566.09,784.85 564.84,783.93 471.29,716.35 470.02,715.43 468.58,714.39 467.01,713.26 465.34,712.05 463.61,710.80 461.84,709.52 460.07,708.24 458.34,706.99 456.67,705.79 455.10,704.65 453.66,703.61 452.38,702.69 392.73,659.59" type="driving"/>
    </edge>
    <edge id="-293" from="12" to="11" priority="1" type="driving" shape="267.78,690.34 282.02,684.57 283.41,684.01 284.99,683.37 286.73,682.67 288.57,681.93 290.45,681.16 292.34,680.40 294.18,679.65 295.92,678.95 297.50,678.31 298.88,677.74 300.35,677.15 302.08,676.45 303.97,675.68 305.91,674.90 307.80,674.13 309.53,673.43 310.99,672.83 333.35,663.77">