<routes><vType id="car" type="passenger" minGap="2.5" accel="2.6" decel="4.5" sigma="0.5" tau="1.0" emergencyDecel="9.0" /><flow id="1" begin="28800.0" end="29700.0" from="-309" number="9" type="car" /><flow id="2" begin="28800.0" end="29700.0" from="-312" number="123" type="car" /><flow id="3" begin="28800.0" end="29700.0" from="-324" number="29" type="car" /><flow id="4" begin="28800.0" end="29700.0" from="-2801" number="186" type="car" /><flow id="5" begin="28800.0" end="29700.0" from="-308" number="98" type="car" /><flow id="6" begin="28800.0" end="29700.0" from="-326" number="72" type="car" /><flow id="7" begin="28800.0" end="29700.0" from="-319" number="39" type="car" /><flow id="8" begin="28800.0" end="29700.0" from="-325" number="7" type="car" /><flow id="9" begin="28800.0" end="29700.0" from="-317" number="14" type="car" /><flow id="10" begin="28800.0" end="29700.0" from="-318" number="28" type="car" /><flow id="11" begin="28800.0" end="29700.0" from="-331" number="23" type="car" /><flow id="12" begin="28800.0" end="29700.0" from="-320" number="26" type="car" /><flow id="13" begin="28800.0" end="29700.0" from="-316" number="25" type="car" /><flow id="14" begin="28800.0" end="29700.0" from="-330" number="24" type="car" /><flow id="15" begin="28800.0" end="29700.0" from="-292" number="169" type="car" /><flow id="16" begin="28800.0" end="29700.0" from="-310" number="192" type="car" /><flow id="17" begin="29700.0" end="30600.0" from="-309" number="10" type="car" /><flow id="18" begin="29700.0" end="30600.0" from="-312" number="115" type="car" /><flow id="19" begin="29700.0" end="30600.0" from="-324" number="29" type="car" /><flow id="20" begin="29700.0" end="30600.0" from="-2801" number="192" type="car" /><flow id="21" begin="29700.0" end="30600.0" from="-308" number="105" type="car" /><flow id="22" begin="29700.0" end="30600.0" from="-326" number="90" type="car" /><flow id="23" begin="29700.0" end="30600.0" from="-319" number="36" type="car" /><flow id="24" begin="29700.0" end="30600.0" from="-325" number="6" type="car" /><flow id="25" begin="29700.0" end="30600.0" from="-317" number="10" type="car" /><flow id="26" begin="29700.0" end="30600.0" from="-318" number="27" type="car" /><flow id="27" begin="29700.0" end="30600.0" from="-331" number="23" type="car" /><flow id="28" begin="29700.0" end="30600.0" from="-320" number="26" type="car" /><flow id="29" begin="29700.0" end="30600.0" from="-316" number="25" type="car" /><flow id="30" begin="29700.0" end="30600.0" from="-330" number="24" type="car" /><flow id="31" begin="29700.0" end="30600.0" from="-292" number="161" type="car" /><flow id="32" begin="29700.0" end="30600.0" from="-310" number="196" type="car" /><flow id="33" begin="30600.0" end="31500.0" from="-309" number="6" type="car" /><flow id="34" begin="30600.0" end="31500.0" from="-312" number="133" type="car" /><flow id="35" begin="30600.0" end="31500.0" from="-324" number="24" type="car" /><flow id="36" begin="30600.0" end="31500.0" from="-2801" number="211" type="car" /><flow id="37" begin="30600.0" end="31500.0" from="-308" number="114" type="car" /><flow id="38" begin="30600.0" end="31500.0" from="-326" number="95" type="car" /><flow id="39" begin="30600.0" end="31500.0" from="-319" number="57" type="car" /><flow id="40" begin="30600.0" end="31500.0" from="-325" number="1" type="car" /><flow id="41" begin="30600.0" end="31500.0" from="-317" number="13" type="car" /><flow id="42" begin="30600.0" end="31500.0" from="-331" number="23" type="car" /><flow id="43" begin="30600.0" end="31500.0" from="-320" number="26" type="car" /><flow id="44" begin="30600.0" end="31500.0" from="-316" number="25" type="car" /><flow id="45" begin="30600.0" end="31500.0" from="-330" number="24" type="car" /><flow id="46" begin="30600.0" end="31500.0" from="-292" number="168" type="car" /><flow id="47" begin="30600.0" end="31500.0" from="-310" number="183" type="car" /><flow id="48" begin="30600.0" end="31500.0" from="-318" number="25" type="car" /><flow id="49" begin="31500.0" end="32400.0" from="-309" number="18" type="car" /><flow id="50" begin="31500.0" end="32400.0" from="-312" number="160" type="car" /><flow id="51" begin="31500.0" end="32400.0" from="-324" number="40" type="car" /><flow id="52" begin="31500.0" end="32400.0" from="-2801" number="196" type="car" /><flow id="53" begin="31500.0" end="32400.0" from="-308" number="100" type="car" /><flow id="54" begin="31500.0" end="32400.0" from="-326" number="106" type="car" /><flow id="55" begin="31500.0" end="32400.0" from="-319" number="35" type="car" /><flow id="56" begin="31500.0" end="32400.0" from="-325" number="8" type="car" /><flow id="57" begin="31500.0" end="32400.0" from="-317" number="12" type="car" /><flow id="58" begin="31500.0" end="32400.0" from="-318" number="27" type="car" /><flow id="59" begin="31500.0" end="32400.0" from="-331" number="23" type="car" /><flow id="60" begin="31500.0" end="32400.0" from="-320" number="26" type="car" /><flow id="61" begin="31500.0" end="32400.0" from="-316" number="25" type="car" /><flow id="62" begin="31500.0" end="32400.0" from="-330" number="24" type="car" /><flow id="63" begin="31500.0" end="32400.0" from="-292" number="195" type="car" /><flow id="64" begin="31500.0" end="32400.0" from="-310" number="194" type="car" /></routes>