<?xml version="1.0" encoding="UTF-8"?>

<!-- generated on 2023-05-31 11:50:19 by Eclipse SUMO netedit Version 1.12.0
<configuration xmlns:xsi="http://www.w3.org/2001/XMLSchema-instance" xsi:noNamespaceSchemaLocation="http://sumo.dlr.de/xsd/netconvertConfiguration.xsd">

    <input>
        <sumo-net-file value="C:\GitDev\Yunli\RealSimInterface\tests\ShallowfordRdSCIL\sumoFiles\RS_ShallowfordRd_RL.net.xml"/>
    </input>

    <output>
        <output-file value="C:\GitDev\Yunli\RealSimInterface\tests\ShallowfordRdSCIL\sumoFiles\RS_ShallowfordRd_RL.net.xml"/>
    </output>

    <processing>
        <geometry.min-radius.fix.railways value="false"/>
        <geometry.max-grade.fix value="false"/>
        <offset.disable-normalization value="true"/>
        <lefthand value="false"/>
    </processing>

    <junctions>
        <no-turnarounds value="true"/>
        <junctions.corner-detail value="5"/>
        <junctions.limit-turn-speed value="5.5"/>
        <rectangular-lane-cut value="false"/>
    </junctions>

    <pedestrian>
        <walkingareas value="false"/>
    </pedestrian>

    <report>
        <aggregate-warnings value="5"/>
    </report>

</configuration>
-->

<net version="1.9" junctionCornerDetail="5" limitTurnSpeed="5.50" xmlns:xsi="http://www.w3.org/2001/XMLSchema-instance" xsi:noNamespaceSchemaLocation="http://sumo.dlr.de/xsd/net_file.xsd">

    <location netOffset="-639371.48,-3848823.33" convBoundary="28092.52,29922.56,29164.48,30897.79" origBoundary="-85.473756,34.767743,-84.942016,35.445713" projParameter="+proj=utm +zone=16 +ellps=WGS84 +datum=WGS84 +units=m +no_defs"/>

    <edge id=":10937_0" function="internal">
        <lane id=":10937_0_0" index="0" speed="7.47" length="12.17" shape="29004.43,30435.73,221.60 29002.55,30432.32,221.59 29000.40,30430.21,221.59 28997.99,30429.42,221.59 28995.32,30429.95,221.59"/>
    </edge>
    <edge id=":10937_1" function="internal">
        <lane id=":10937_1_0" index="0" speed="13.34" length="40.27" shape="29004.43,30435.73,221.60 28991.19,30397.70,221.70"/>
    </edge>
    <edge id=":10937_2" function="internal">
        <lane id=":10937_2_0" index="0" speed="11.82" length="32.42" shape="29007.37,30434.47,221.60 29003.95,30424.12,221.59 29003.48,30415.90,221.59 29005.97,30409.82,221.59 29011.40,30405.87,221.59"/>
    </edge>
    <edge id=":10937_3" function="internal">
        <lane id=":10937_3_0" index="0" speed="7.97" length="14.17" shape="29018.79,30423.59,221.59 29014.25,30425.86,221.59 29011.33,30428.23,221.59 29010.01,30430.68,221.59 29010.31,30433.21,221.60"/>
    </edge>
    <edge id=":10937_4" function="internal">
        <lane id=":10937_4_0" index="0" speed="19.04" length="24.40" shape="29018.79,30423.59,221.59 29011.97,30425.90,221.59 29007.05,30426.76,221.59 29002.14,30427.62,221.59 28995.32,30429.95,221.59"/>
        <lane id=":10937_4_1" index="1" speed="19.04" length="24.40" shape="29017.56,30420.64,221.59 29010.73,30422.94,221.59 29005.81,30423.81,221.59 29000.90,30424.67,221.59 28994.08,30427.00,221.59"/>
        <lane id=":10937_4_2" index="2" speed="19.04" length="24.40" shape="29016.33,30417.68,221.59 29009.50,30419.99,221.59 29004.58,30420.85,221.59 28999.66,30421.72,221.59 28992.84,30424.05,221.59"/>
        <lane id=":10937_4_3" index="3" speed="19.04" length="24.40" shape="29015.10,30414.73,221.59 29008.26,30417.04,221.59 29003.34,30417.90,221.59 28998.42,30418.77,221.59 28991.60,30421.10,221.59"/>
    </edge>
    <edge id=":10937_8" function="internal">
        <lane id=":10937_8_0" index="0" speed="11.54" length="29.95" shape="29013.87,30411.78,221.59 29007.30,30413.05,221.61 29001.33,30411.12,221.64 28995.96,30406.01,221.66 28991.19,30397.70,221.70"/>
    </edge>
    <edge id=":10937_9" function="internal">
        <lane id=":10937_9_0" index="0" speed="8.30" length="15.00" shape="28999.94,30393.75,221.70 29002.49,30398.56,221.66 29005.05,30401.69,221.63 29007.61,30403.15,221.61 29010.17,30402.92,221.59"/>
    </edge>
    <edge id=":10937_10" function="internal">
        <lane id=":10937_10_0" index="0" speed="13.34" length="40.41" shape="28997.02,30395.07,221.70 29001.43,30406.15,221.67 29005.24,30417.54,221.64 29008.27,30427.24,221.61 29010.31,30433.21,221.60"/>
    </edge>
    <edge id=":10937_11" function="internal">
        <lane id=":10937_11_0" index="0" speed="10.92" length="27.86" shape="28994.11,30396.39,221.70 28997.32,30405.39,221.66 28997.97,30412.51,221.63 28996.06,30417.74,221.61 28991.60,30421.10,221.59"/>
    </edge>
    <edge id=":10937_12" function="internal">
        <lane id=":10937_12_0" index="0" speed="6.45" length="9.03" shape="28985.40,30406.35,221.59 28987.53,30405.07,221.62 28988.72,30403.42,221.64 28988.97,30401.41,221.67 28988.28,30399.02,221.70"/>
        <lane id=":10937_12_1" index="1" speed="7.95" length="14.29" shape="28986.64,30409.30,221.59 28990.01,30407.28,221.62 28991.89,30404.67,221.64 28992.28,30401.48,221.67 28991.19,30397.70,221.70"/>
    </edge>
    <edge id=":10937_14" function="internal">
        <lane id=":10937_14_0" index="0" speed="19.04" length="24.16" shape="28987.88,30412.25,221.59 29010.17,30402.92,221.59"/>
        <lane id=":10937_14_1" index="1" speed="19.04" length="24.16" shape="28989.12,30415.20,221.59 29011.40,30405.87,221.59"/>
    </edge>
    <edge id=":10937_16" function="internal">
        <lane id=":10937_16_0" index="0" speed="11.05" length="27.89" shape="28990.36,30418.15,221.59 28995.89,30417.29,221.59 29001.06,30419.51,221.59 29005.87,30424.82,221.59 29010.31,30433.21,221.60"/>
    </edge>
    <edge id=":14113_0" function="internal">
        <lane id=":14113_0_0" index="0" speed="8.94" length="0.31" shape="28780.15,30717.89,218.70 28779.89,30717.71,218.70"/>
    </edge>
    <edge id=":14113_1" function="internal">
        <lane id=":14113_1_0" index="0" speed="8.94" length="0.28" shape="28781.74,30715.10,218.70 28781.97,30715.26,218.70"/>
    </edge>
    <edge id=":15179_0" function="internal">
        <lane id=":15179_0_0" index="0" speed="27.63" length="0.26" shape="28642.72,30245.49,215.87 28642.95,30245.69,215.87"/>
        <lane id=":15179_0_1" index="1" speed="27.63" length="0.26" shape="28640.66,30247.94,215.87 28640.82,30248.08,215.87"/>
    </edge>
    <edge id=":15180_0" function="internal">
        <lane id=":15180_0_0" index="0" speed="27.63" length="0.30" shape="28801.78,30370.39,219.07 28802.02,30370.55,219.07"/>
        <lane id=":15180_0_1" index="1" speed="27.63" length="0.30" shape="28799.97,30373.02,219.07 28800.22,30373.20,219.07"/>
    </edge>
    <edge id=":15181_0" function="internal">
        <lane id=":15181_0_0" index="0" speed="27.63" length="8.60" shape="28831.21,30390.89,219.33 28833.46,30391.97,219.35 28835.34,30392.01,219.36 28837.23,30392.04,219.37 28839.50,30393.10,219.39"/>
        <lane id=":15181_0_1" index="1" speed="27.63" length="8.60" shape="28829.28,30393.44,219.33 28831.54,30394.53,219.35 28833.43,30394.57,219.36 28835.32,30394.61,219.37 28837.59,30395.67,219.39"/>
        <lane id=":15181_0_2" index="2" speed="27.63" length="8.60" shape="28829.28,30393.44,219.33 28835.69,30398.24,219.39"/>
        <lane id=":15181_0_3" index="3" speed="27.63" length="8.60" shape="28829.28,30393.44,219.33 28830.95,30395.33,219.35 28831.52,30397.14,219.36 28832.10,30398.95,219.37 28833.79,30400.82,219.39"/>
    </edge>
    <edge id=":15192_0" function="internal">
        <lane id=":15192_0_0" index="0" speed="28.97" length="0.30" shape="28553.19,30145.37,216.85 28553.35,30145.56,216.83"/>
        <lane id=":15192_0_1" index="1" speed="28.97" length="0.30" shape="28550.74,30147.43,216.85 28550.92,30147.64,216.83"/>
        <lane id=":15192_0_2" index="2" speed="28.97" length="0.30" shape="28548.29,30149.49,216.85 28548.49,30149.72,216.83"/>
        <lane id=":15192_0_3" index="3" speed="28.97" length="0.30" shape="28545.84,30151.54,216.85 28546.06,30151.80,216.83"/>
    </edge>
    <edge id=":15440_0" function="internal">
        <lane id=":15440_0_0" index="0" speed="31.88" length="0.28" shape="28529.46,30165.99,218.74 28529.21,30165.72,218.76"/>
        <lane id=":15440_0_1" index="1" speed="31.88" length="0.28" shape="28531.83,30163.86,218.74 28531.63,30163.62,218.76"/>
        <lane id=":15440_0_2" index="2" speed="31.88" length="0.28" shape="28534.21,30161.72,218.74 28534.05,30161.52,218.76"/>
        <lane id=":15440_0_3" index="3" speed="31.88" length="0.28" shape="28536.59,30159.58,218.74 28536.46,30159.43,218.76"/>
    </edge>
    <edge id=":15680_0" function="internal">
        <lane id=":15680_0_0" index="0" speed="19.94" length="0.15" shape="28707.13,30548.18,221.12 28707.03,30548.23,221.12"/>
        <lane id=":15680_0_1" index="1" speed="19.94" length="0.15" shape="28705.89,30545.23,221.12 28705.72,30545.31,221.12"/>
    </edge>
    <edge id=":15680_2" function="internal">
        <lane id=":15680_2_0" index="0" speed="19.94" length="0.39" shape="28701.78,30536.56,221.12 28702.17,30536.38,221.12"/>
        <lane id=":15680_2_1" index="1" speed="19.94" length="0.39" shape="28703.09,30539.47,221.12 28703.41,30539.33,221.12"/>
    </edge>
    <edge id=":16396_0" function="internal">
        <lane id=":16396_0_0" index="0" speed="19.94" length="0.29" shape="28964.97,30442.71,220.48 28964.71,30442.82,220.47"/>
        <lane id=":16396_0_1" index="1" speed="19.94" length="0.29" shape="28963.73,30439.76,220.48 28963.46,30439.87,220.47"/>
        <lane id=":16396_0_2" index="2" speed="19.94" length="0.29" shape="28962.49,30436.81,220.48 28962.22,30436.92,220.47"/>
        <lane id=":16396_0_3" index="3" speed="19.94" length="0.29" shape="28961.25,30433.86,220.48 28960.98,30433.97,220.47"/>
    </edge>
    <edge id=":16396_4" function="internal">
        <lane id=":16396_4_0" index="0" speed="19.94" length="0.31" shape="28954.75,30419.23,220.47 28955.05,30419.11,220.47"/>
        <lane id=":16396_4_1" index="1" speed="19.94" length="0.31" shape="28956.00,30422.18,220.47 28956.29,30422.06,220.47"/>
        <lane id=":16396_4_2" index="2" speed="19.94" length="0.31" shape="28957.24,30425.13,220.47 28957.53,30425.01,220.47"/>
        <lane id=":16396_4_3" index="3" speed="19.94" length="0.31" shape="28958.49,30428.08,220.47 28958.77,30427.96,220.47"/>
        <lane id=":16396_4_4" index="4" speed="19.94" length="0.31" shape="28959.73,30431.02,220.47 28960.01,30430.91,220.47"/>
    </edge>
    <edge id=":16417_0" function="internal">
        <lane id=":16417_0_0" index="0" speed="19.94" length="1.44" shape="28824.85,30501.95,219.99 28823.96,30502.36,219.99"/>
        <lane id=":16417_0_1" index="1" speed="19.94" length="1.44" shape="28823.47,30499.07,219.99 28822.71,30499.41,219.99"/>
        <lane id=":16417_0_2" index="2" speed="19.94" length="1.44" shape="28822.09,30496.18,219.99 28821.47,30496.46,219.99"/>
        <lane id=":16417_0_3" index="3" speed="19.94" length="1.44" shape="28822.09,30496.18,219.99 28820.22,30493.52,219.99"/>
    </edge>
    <edge id=":16417_4" function="internal">
        <lane id=":16417_4_0" index="0" speed="19.94" length="1.18" shape="28816.48,30484.67,219.99 28816.57,30484.63,219.99"/>
        <lane id=":16417_4_1" index="1" speed="19.94" length="1.18" shape="28817.73,30487.62,219.99 28817.95,30487.52,219.99"/>
        <lane id=":16417_4_2" index="2" speed="19.94" length="1.18" shape="28817.73,30487.62,219.99 28819.33,30490.41,219.99"/>
    </edge>
    <edge id=":16439_0" function="internal">
        <lane id=":16439_0_0" index="0" speed="18.14" length="0.31" shape="29039.77,30414.84,222.60 29039.47,30414.97,222.60"/>
        <lane id=":16439_0_1" index="1" speed="18.14" length="0.31" shape="29038.53,30411.89,222.60 29038.24,30412.01,222.60"/>
        <lane id=":16439_0_2" index="2" speed="18.14" length="0.31" shape="29037.29,30408.94,222.60 29037.01,30409.06,222.60"/>
        <lane id=":16439_0_3" index="3" speed="18.14" length="0.31" shape="29036.05,30405.99,222.60 29035.77,30406.11,222.60"/>
        <lane id=":16439_0_4" index="4" speed="18.14" length="0.31" shape="29034.81,30403.04,222.60 29034.54,30403.15,222.60"/>
    </edge>
    <edge id=":16439_5" function="internal">
        <lane id=":16439_5_0" index="0" speed="18.14" length="0.28" shape="29030.85,30394.29,222.59 29031.10,30394.19,222.60"/>
        <lane id=":16439_5_1" index="1" speed="18.14" length="0.28" shape="29032.08,30397.25,222.59 29032.34,30397.14,222.60"/>
    </edge>
    <edge id=":16440_0" function="internal">
        <lane id=":16440_0_0" index="0" speed="18.14" length="8.69" shape="29092.75,30389.06,222.55 29090.66,30390.51,222.60 29089.65,30392.14,222.64 29088.65,30393.76,222.68 29086.54,30395.19,222.72"/>
        <lane id=":16440_0_1" index="1" speed="18.14" length="8.69" shape="29091.47,30386.12,222.55 29089.39,30387.57,222.60 29088.40,30389.20,222.64 29087.40,30390.82,222.68 29085.30,30392.24,222.72"/>
        <lane id=":16440_0_2" index="2" speed="18.14" length="8.69" shape="29090.20,30383.19,222.55 29088.13,30384.63,222.60 29087.14,30386.26,222.64 29086.15,30387.87,222.68 29084.06,30389.29,222.72"/>
        <lane id=":16440_0_3" index="3" speed="18.14" length="8.69" shape="29090.20,30383.19,222.55 29082.82,30386.34,222.72"/>
        <lane id=":16440_0_4" index="4" speed="18.14" length="8.69" shape="29090.20,30383.19,222.55 29087.74,30383.71,222.60 29085.90,30383.31,222.64 29084.05,30382.90,222.68 29081.58,30383.39,222.72"/>
    </edge>
    <edge id=":16440_5" function="internal">
        <lane id=":16440_5_0" index="0" speed="18.14" length="8.17" shape="29077.87,30374.54,222.72 29085.10,30371.45,222.55"/>
        <lane id=":16440_5_1" index="1" speed="18.14" length="8.17" shape="29079.10,30377.49,222.72 29086.38,30374.38,222.55"/>
        <lane id=":16440_5_2" index="2" speed="18.14" length="8.17" shape="29079.10,30377.49,222.72 29081.55,30377.00,222.68 29083.39,30377.42,222.64 29085.22,30377.83,222.60 29087.65,30377.32,222.55"/>
    </edge>
    <edge id=":16441_0" function="internal">
        <lane id=":16441_0_0" index="0" speed="18.14" length="0.10" shape="29069.99,30402.15,223.60 29069.99,30402.15,223.60"/>
        <lane id=":16441_0_1" index="1" speed="18.14" length="0.10" shape="29068.75,30399.20,223.60 29068.75,30399.20,223.60"/>
        <lane id=":16441_0_2" index="2" speed="18.14" length="0.10" shape="29067.51,30396.25,223.60 29067.51,30396.25,223.60"/>
        <lane id=":16441_0_3" index="3" speed="18.14" length="0.10" shape="29066.27,30393.30,223.60 29066.27,30393.30,223.60"/>
        <lane id=":16441_0_4" index="4" speed="18.14" length="0.10" shape="29065.03,30390.35,223.60 29065.03,30390.35,223.60"/>
    </edge>
    <edge id=":16441_5" function="internal">
        <lane id=":16441_5_0" index="0" speed="18.14" length="0.10" shape="29061.31,30381.49,223.60 29061.31,30381.49,223.60"/>
        <lane id=":16441_5_1" index="1" speed="18.14" length="0.10" shape="29062.55,30384.44,223.60 29062.55,30384.44,223.60"/>
    </edge>
    <edge id=":16442_0" function="internal">
        <lane id=":16442_0_0" index="0" speed="18.14" length="0.16" shape="29103.76,30384.28,222.64 29103.68,30384.32,222.63"/>
        <lane id=":16442_0_1" index="1" speed="18.14" length="0.16" shape="29102.55,30381.32,222.64 29102.40,30381.38,222.63"/>
        <lane id=":16442_0_2" index="2" speed="18.14" length="0.16" shape="29101.34,30378.35,222.64 29101.13,30378.44,222.63"/>
    </edge>
    <edge id=":16442_3" function="internal">
        <lane id=":16442_3_0" index="0" speed="18.14" length="0.45" shape="29096.03,30366.70,222.63 29096.51,30366.50,222.64"/>
        <lane id=":16442_3_1" index="1" speed="18.14" length="0.45" shape="29097.31,30369.64,222.63 29097.72,30369.46,222.64"/>
        <lane id=":16442_3_2" index="2" speed="18.14" length="0.45" shape="29098.58,30372.57,222.63 29098.93,30372.43,222.64"/>
    </edge>
    <edge id=":16443_0" function="internal">
        <lane id=":16443_0_0" index="0" speed="18.14" length="1.32" shape="29120.30,30377.48,223.35 29118.88,30378.12,223.34"/>
        <lane id=":16443_0_1" index="1" speed="18.14" length="1.32" shape="29118.88,30374.61,223.35 29117.68,30375.15,223.34"/>
        <lane id=":16443_0_2" index="2" speed="18.14" length="1.32" shape="29117.45,30371.75,223.35 29116.47,30372.19,223.34"/>
    </edge>
    <edge id=":16443_3" function="internal">
        <lane id=":16443_3_0" index="0" speed="18.14" length="0.36" shape="29111.64,30360.34,223.34 29111.75,30360.29,223.35"/>
        <lane id=":16443_3_1" index="1" speed="18.14" length="0.36" shape="29112.85,30363.30,223.34 29113.17,30363.15,223.35"/>
        <lane id=":16443_3_2" index="2" speed="18.14" length="0.36" shape="29114.05,30366.26,223.34 29114.60,30366.02,223.35"/>
    </edge>
    <edge id=":16454_0" function="internal">
        <lane id=":16454_0_0" index="0" speed="18.14" length="0.29" shape="29126.17,30374.56,223.10 29126.08,30374.60,223.12"/>
        <lane id=":16454_0_1" index="1" speed="18.14" length="0.29" shape="29124.92,30371.61,223.10 29124.65,30371.74,223.12"/>
        <lane id=":16454_0_2" index="2" speed="18.14" length="0.29" shape="29123.67,30368.67,223.10 29123.23,30368.87,223.12"/>
    </edge>
    <edge id=":16454_3" function="internal">
        <lane id=":16454_3_0" index="0" speed="18.14" length="1.07" shape="29117.53,30357.41,223.12 29118.68,30356.88,223.10"/>
        <lane id=":16454_3_1" index="1" speed="18.14" length="1.07" shape="29118.95,30360.28,223.12 29119.93,30359.83,223.10"/>
        <lane id=":16454_3_2" index="2" speed="18.14" length="1.07" shape="29120.38,30363.14,223.12 29121.18,30362.77,223.10"/>
    </edge>
    <edge id=":2117_0" function="internal">
        <lane id=":2117_0_0" index="0" speed="6.05" length="9.07" shape="28926.59,30458.91,220.09 28924.38,30460.24,220.07 28923.32,30461.88,220.05 28923.40,30463.83,220.03 28924.62,30466.10,220.00"/>
    </edge>
    <edge id=":2117_1" function="internal">
        <lane id=":2117_1_0" index="0" speed="19.94" length="28.10" shape="28925.35,30455.96,220.09 28917.89,30459.64,220.06 28913.11,30462.83,220.04 28908.32,30466.00,220.01 28900.83,30469.63,219.98"/>
        <lane id=":2117_1_1" index="1" speed="19.94" length="28.10" shape="28924.10,30453.01,220.09 28916.65,30456.69,220.06 28911.87,30459.88,220.04 28907.09,30463.04,220.01 28899.61,30466.67,219.98"/>
        <lane id=":2117_1_2" index="2" speed="19.94" length="28.10" shape="28922.86,30450.06,220.09 28915.41,30453.74,220.06 28910.64,30456.92,220.04 28905.86,30460.09,220.01 28898.39,30463.71,219.98"/>
    </edge>
    <edge id=":2117_4" function="internal">
        <lane id=":2117_4_0" index="0" speed="11.37" length="17.38" shape="28899.94,30437.46,219.89 28902.59,30438.49,219.92 28906.25,30438.48,219.97 28910.94,30437.42,220.02 28916.64,30435.32,220.09"/>
        <lane id=":2117_4_1" index="1" speed="12.35" length="20.64" shape="28898.06,30440.05,219.89 28901.45,30441.50,219.93 28905.88,30441.69,219.97 28911.36,30440.61,220.03 28917.88,30438.27,220.09"/>
        <lane id=":2117_4_2" index="2" speed="13.27" length="23.90" shape="28896.18,30442.64,219.89 28900.31,30444.51,219.93 28905.52,30444.90,219.97 28911.79,30443.80,220.03 28919.13,30441.22,220.09"/>
    </edge>
    <edge id=":2117_7" function="internal">
        <lane id=":2117_7_0" index="0" speed="27.63" length="36.53" shape="28896.18,30442.64,219.89 28906.08,30449.74,219.93 28913.76,30455.42,219.95 28919.77,30460.57,219.98 28924.62,30466.10,220.00"/>
        <lane id=":2117_7_1" index="1" speed="27.63" length="36.53" shape="28894.30,30445.23,219.89 28903.93,30452.11,219.93 28911.39,30457.56,219.95 28917.25,30462.54,219.98 28922.05,30468.01,220.00"/>
    </edge>
    <edge id=":2117_9" function="internal">
        <lane id=":2117_9_0" index="0" speed="8.72" length="24.22" shape="28894.30,30445.23,219.89 28899.90,30450.16,219.92 28903.18,30455.28,219.94 28903.05,30460.00,219.96 28898.39,30463.71,219.98"/>
    </edge>
    <edge id=":2117_10" function="internal">
        <lane id=":2117_10_0" index="0" speed="19.94" length="27.99" shape="28893.51,30451.88,219.98 28900.95,30448.27,220.01 28905.71,30445.11,220.04 28910.46,30441.94,220.06 28917.88,30438.27,220.09"/>
        <lane id=":2117_10_1" index="1" speed="19.94" length="27.99" shape="28894.73,30454.83,219.98 28902.18,30451.22,220.01 28906.94,30448.07,220.04 28911.70,30444.89,220.06 28919.13,30441.22,220.09"/>
    </edge>
    <edge id=":2117_12" function="internal">
        <lane id=":2117_12_0" index="0" speed="12.72" length="30.43" shape="28895.95,30457.79,219.98 28902.91,30456.23,219.98 28909.58,30457.42,219.99 28915.96,30461.34,219.99 28922.05,30468.01,220.00"/>
    </edge>
    <edge id=":2118_0" function="internal">
        <lane id=":2118_0_0" index="0" speed="28.30" length="8.87" shape="29033.23,30705.24,220.47 29034.29,30707.50,220.41 29035.12,30709.00,220.36 29036.13,30710.38,220.32 29037.74,30712.29,220.26"/>
        <lane id=":2118_0_1" index="1" speed="28.30" length="8.87" shape="29030.32,30706.57,220.47 29031.49,30709.07,220.41 29032.41,30710.73,220.36 29033.53,30712.27,220.32 29035.31,30714.37,220.26"/>
    </edge>
    <edge id=":2164_0" function="internal">
        <lane id=":2164_0_0" index="0" speed="28.30" length="7.61" shape="28618.84,30220.61,215.15 28619.83,30222.48,215.19 28619.88,30224.14,215.22 28620.01,30225.73,215.24 28621.20,30227.38,215.28"/>
        <lane id=":2164_0_1" index="1" speed="28.30" length="7.61" shape="28616.44,30222.73,215.15 28617.52,30224.70,215.19 28617.65,30226.43,215.22 28617.85,30228.09,215.24 28619.14,30229.83,215.28"/>
    </edge>
    <edge id=":2678_0" function="internal">
        <lane id=":2678_0_0" index="0" speed="29.75" length="8.46" shape="28610.66,30258.03,215.31 28609.54,30255.80,215.04 28608.67,30254.33,214.85 28607.62,30252.97,214.67 28605.97,30251.11,214.40"/>
    </edge>
    <edge id=":2679_0" function="internal">
        <lane id=":2679_0_0" index="0" speed="29.75" length="8.63" shape="29024.84,30745.63,219.57 29023.24,30743.76,219.59 29022.08,30742.53,219.61 29020.81,30741.41,219.62 29018.89,30739.88,219.64"/>
        <lane id=":2679_0_1" index="1" speed="29.75" length="8.63" shape="29027.29,30743.56,219.57 29025.56,30741.55,219.59 29024.31,30740.22,219.61 29022.94,30739.02,219.62 29020.87,30737.36,219.64"/>
    </edge>
    <edge id=":27629_0" function="internal">
        <lane id=":27629_0_0" index="0" speed="17.89" length="9.26" shape="28957.30,30335.13,222.29 28956.00,30332.95,222.29 28954.95,30331.54,222.30 28953.66,30330.35,222.30 28951.63,30328.82,222.30"/>
        <lane id=":27629_0_1" index="1" speed="17.89" length="9.26" shape="28960.07,30333.53,222.29 28958.56,30331.01,222.29 28957.35,30329.38,222.30 28955.86,30328.01,222.30 28953.52,30326.24,222.30"/>
    </edge>
    <edge id=":27629_2" function="internal">
        <lane id=":27629_2_0" index="0" speed="17.89" length="13.07" shape="28957.31,30321.08,222.30 28960.85,30323.13,222.30 28963.60,30324.21,222.30 28965.98,30325.62,222.30 28968.37,30328.70,222.29"/>
        <lane id=":27629_2_1" index="1" speed="17.89" length="13.07" shape="28955.42,30323.66,222.30 28958.65,30325.48,222.30 28961.20,30326.37,222.30 28963.41,30327.56,222.30 28965.60,30330.31,222.29"/>
    </edge>
    <edge id=":27644_0" function="internal">
        <lane id=":27644_0_0" index="0" speed="18.06" length="2.11" shape="28928.59,30311.91,221.86 28928.00,30311.47,221.86 28927.62,30311.15,221.86 28927.27,30310.80,221.86 28926.78,30310.25,221.86"/>
        <lane id=":27644_0_1" index="1" speed="18.06" length="2.11" shape="28930.48,30309.33,221.86 28930.06,30309.02,221.86 28929.79,30308.79,221.86 28929.54,30308.53,221.86 28929.19,30308.14,221.86"/>
    </edge>
    <edge id=":27644_2" function="internal">
        <lane id=":27644_2_0" index="0" speed="18.06" length="0.70" shape="28934.01,30303.93,221.86 28934.08,30304.01,221.86 28934.13,30304.06,221.86 28934.18,30304.11,221.86 28934.27,30304.17,221.86"/>
        <lane id=":27644_2_1" index="1" speed="18.06" length="0.70" shape="28931.60,30306.04,221.86 28931.81,30306.27,221.86 28931.96,30306.42,221.86 28932.12,30306.56,221.86 28932.37,30306.75,221.86"/>
    </edge>
    <edge id=":2881_0" function="internal">
        <lane id=":2881_0_0" index="0" speed="12.67" length="21.50" shape="28750.23,30543.49,220.92 28744.55,30540.01,220.93 28739.32,30538.01,220.95 28734.54,30537.50,220.96 28730.22,30538.48,220.97"/>
    </edge>
    <edge id=":2881_1" function="internal">
        <lane id=":2881_1_0" index="0" speed="27.63" length="35.06" shape="28750.23,30543.49,220.92 28742.05,30536.91,220.90 28735.60,30530.29,220.88 28730.57,30523.63,220.86 28726.66,30516.97,220.84"/>
        <lane id=":2881_1_1" index="1" speed="27.63" length="35.06" shape="28752.09,30540.89,220.92 28744.06,30534.49,220.90 28737.95,30528.25,220.88 28733.26,30521.98,220.86 28729.50,30515.50,220.84"/>
    </edge>
    <edge id=":2881_3" function="internal">
        <lane id=":2881_3_0" index="0" speed="10.40" length="35.05" shape="28752.09,30540.89,220.92 28744.14,30533.77,220.87 28739.76,30526.31,220.82 28740.33,30519.40,220.79 28747.22,30513.94,220.75"/>
        <lane id=":2881_3_1" index="1" speed="9.38" length="28.25" shape="28753.95,30538.29,220.92 28747.30,30532.60,220.87 28743.23,30526.70,220.82 28743.15,30521.24,220.79 28748.47,30516.89,220.75"/>
    </edge>
    <edge id=":2881_5" function="internal">
        <lane id=":2881_5_0" index="0" speed="19.94" length="25.48" shape="28754.69,30531.63,220.75 28747.58,30534.09,220.81 28742.46,30535.06,220.86 28737.34,30536.03,220.90 28730.22,30538.48,220.97"/>
        <lane id=":2881_5_1" index="1" speed="19.94" length="25.48" shape="28753.45,30528.68,220.75 28746.33,30531.14,220.81 28741.22,30532.11,220.86 28736.10,30533.08,220.90 28728.98,30535.53,220.97"/>
    </edge>
    <edge id=":2881_7" function="internal">
        <lane id=":2881_7_0" index="0" speed="11.82" length="30.28" shape="28752.20,30525.73,220.75 28744.15,30527.91,220.77 28737.20,30527.18,220.79 28731.38,30523.53,220.82 28726.66,30516.97,220.84"/>
        <lane id=":2881_7_1" index="1" speed="10.86" length="25.41" shape="28750.96,30522.78,220.75 28744.18,30524.63,220.77 28738.34,30524.03,220.79 28733.45,30520.98,220.82 28729.50,30515.50,220.84"/>
    </edge>
    <edge id=":2881_9" function="internal">
        <lane id=":2881_9_0" index="0" speed="7.00" length="11.26" shape="28725.26,30526.68,220.97 28727.33,30525.24,220.94 28728.25,30523.14,220.91 28728.03,30520.39,220.88 28726.66,30516.97,220.84"/>
    </edge>
    <edge id=":2881_10" function="internal">
        <lane id=":2881_10_0" index="0" speed="19.94" length="25.45" shape="28725.26,30526.68,220.97 28730.93,30523.75,220.91 28735.31,30520.71,220.86 28740.15,30517.47,220.81 28747.22,30513.94,220.75"/>
        <lane id=":2881_10_1" index="1" speed="19.94" length="25.45" shape="28726.50,30529.63,220.97 28732.17,30526.70,220.91 28736.55,30523.66,220.86 28741.39,30520.42,220.81 28748.47,30516.89,220.75"/>
    </edge>
    <edge id=":2882_0" function="internal">
        <lane id=":2882_0_0" index="0" speed="27.63" length="8.21" shape="28831.99,30600.10,219.79 28829.91,30598.89,219.81 28828.30,30598.40,219.83 28826.68,30597.91,219.84 28824.59,30596.72,219.86"/>
        <lane id=":2882_0_1" index="1" speed="27.63" length="8.21" shape="28831.99,30600.10,219.79 28830.20,30598.48,219.81 28829.23,30597.10,219.83 28828.25,30595.72,219.84 28826.45,30594.12,219.86"/>
        <lane id=":2882_0_2" index="2" speed="27.63" length="8.21" shape="28833.88,30597.51,219.79 28832.08,30595.89,219.81 28831.10,30594.50,219.83 28830.12,30593.12,219.84 28828.31,30591.52,219.86"/>
    </edge>
    <edge id=":2883_0" function="internal">
        <lane id=":2883_0_0" index="0" speed="27.63" length="0.29" shape="28864.91,30624.03,219.53 28864.66,30623.85,219.53"/>
        <lane id=":2883_0_1" index="1" speed="27.63" length="0.29" shape="28866.77,30621.42,219.53 28866.54,30621.26,219.53"/>
    </edge>
    <edge id=":2884_0" function="internal">
        <lane id=":2884_0_0" index="0" speed="27.63" length="0.30" shape="28965.68,30697.97,219.61 28965.45,30697.79,219.61"/>
        <lane id=":2884_0_1" index="1" speed="27.63" length="0.30" shape="28967.66,30695.46,219.61 28967.41,30695.27,219.61"/>
    </edge>
    <edge id=":2902_0" function="internal">
        <lane id=":2902_0_0" index="0" speed="31.88" length="0.63" shape="29100.27,30833.47,220.57 29099.99,30833.17,220.56"/>
        <lane id=":2902_0_1" index="1" speed="31.88" length="0.63" shape="29102.69,30831.38,220.57 29102.31,30830.96,220.56"/>
        <lane id=":2902_0_2" index="2" speed="31.88" length="0.63" shape="29105.11,30829.28,220.57 29104.63,30828.76,220.56"/>
        <lane id=":2902_0_3" index="3" speed="31.88" length="0.63" shape="29107.53,30827.19,220.57 29106.95,30826.55,220.56"/>
    </edge>
    <edge id=":3575_0" function="internal">
        <lane id=":3575_0_0" index="0" speed="17.88" length="2.91" shape="28429.24,30647.67,215.61 28431.87,30646.62,215.66"/>
        <lane id=":3575_0_1" index="1" speed="17.88" length="2.91" shape="28430.39,30650.66,215.61 28433.10,30649.57,215.66"/>
        <lane id=":3575_0_2" index="2" speed="17.88" length="2.91" shape="28431.55,30653.64,215.61 28434.32,30652.53,215.66"/>
    </edge>
    <edge id=":3586_0" function="internal">
        <lane id=":3586_0_0" index="0" speed="6.49" length="9.03" shape="28623.65,30590.43,221.99 28622.40,30588.29,221.99 28620.76,30587.07,221.99 28618.75,30586.77,221.99 28616.35,30587.39,221.99"/>
    </edge>
    <edge id=":3586_1" function="internal">
        <lane id=":3586_1_0" index="0" speed="8.94" length="27.43" shape="28623.65,30590.43,221.99 28621.01,30583.09,221.95 28618.72,30575.63,221.91 28616.68,30569.08,221.88 28614.82,30564.48,221.85"/>
    </edge>
    <edge id=":3586_2" function="internal">
        <lane id=":3586_2_0" index="0" speed="9.73" length="21.50" shape="28626.61,30589.22,221.99 28624.75,30582.78,221.98 28624.91,30577.57,221.97 28627.11,30573.59,221.96 28631.33,30570.84,221.95"/>
    </edge>