<?xml version="1.0" encoding="UTF-8"?>

<!-- generated on 2023-07-31 00:21:32 by Eclipse SUMO netedit Version 1.13.0
-->

<routes xmlns:xsi="http://www.w3.org/2001/XMLSchema-instance" xsi:noNamespaceSchemaLocation="http://sumo.dlr.de/xsd/routes_file.xsd">
    <!-- Vehicles, persons and containers (sorted by depart) -->
    <flow id="f_0" begin="0.00" from="-18" to="-22#3" end="36000.00" vehsPerHour="1000.00"/>
</routes>
