<?xml version="1.0" encoding="UTF-8"?>

<!-- generated on 12/11/20 19:52:29 by Eclipse SUMO GUI Version 1.5.0
-->

<configuration xmlns:xsi="http://www.w3.org/2001/XMLSchema-instance" xsi:noNamespaceSchemaLocation="http://sumo.dlr.de/xsd/sumoConfiguration.xsd">

    <input>
        <net-file value=".\turnSignal.net.xml"/>
        <route-files value=".\turnSignal.rou.xml"/>
    </input>

</configuration>
