<?xml version="1.0" encoding="UTF-8"?>

<!-- generated on 2023-07-31 00:15:03 by Eclipse SUMO netconvert Version 1.18.0
<configuration xmlns:xsi="http://www.w3.org/2001/XMLSchema-instance" xsi:noNamespaceSchemaLocation="http://sumo.dlr.de/xsd/netconvertConfiguration.xsd">

    <input>
        <opendrive-files value="turnSignal.xodr"/>
    </input>

    <output>
        <output-file value="turnSignal.net.xml"/>
    </output>

    <junctions>
        <no-turnarounds.except-deadend value="true"/>
    </junctions>

</configuration>
-->

<net version="1.16" junctionCornerDetail="5" rectangularLaneCut="true" limitTurnSpeed="5.50" xmlns:xsi="http://www.w3.org/2001/XMLSchema-instance" xsi:noNamespaceSchemaLocation="http://sumo.dlr.de/xsd/net_file.xsd">

    <location netOffset="2800.00,232.67" convBoundary="0.00,0.00,5509.03,684.41" origBoundary="-2800.00,-232.67,2709.03,451.73" projParameter="!"/>

    <type id="driving" priority="1" speed="13.89" disallow="pedestrian tram rail_urban rail rail_electric rail_fast ship" width="3.65"/>

    <edge id=":18.begin_0" function="internal">
        <lane id=":18.begin_0_0" index="0" disallow="pedestrian tram rail_urban rail rail_electric rail_fast ship" speed="5.56" length="13.51" width="3.75" shape="0.00,237.30 -3.47,234.99 -4.62,232.67 -3.47,230.36 0.00,228.05"/>
    </edge>
    <edge id=":19#1_0" function="internal">
        <lane id=":19#1_0_0" index="0" disallow="pedestrian tram rail_urban rail rail_electric rail_fast ship" speed="83.33" length="3.12" width="3.50" shape="2551.50,244.67 2550.57,244.88 2550.00,245.32 2549.43,245.77 2548.50,245.97"/>
        <lane id=":19#1_0_1" index="1" disallow="pedestrian tram rail_urban rail rail_electric rail_fast ship" speed="83.33" length="3.12" width="3.75" shape="2551.50,241.05 2548.50,241.05"/>
        <lane id=":19#1_0_2" index="2" disallow="pedestrian tram rail_urban rail rail_electric rail_fast ship" speed="83.33" length="3.12" width="3.75" shape="2551.50,237.30 2548.50,237.30"/>
    </edge>
    <edge id=":19#1_3" function="internal">
        <lane id=":19#1_3_0" index="0" disallow="pedestrian tram rail_urban rail rail_electric rail_fast ship" speed="83.33" length="3.00" width="3.75" shape="2548.50,224.30 2551.50,224.30"/>
        <lane id=":19#1_3_1" index="1" disallow="pedestrian tram rail_urban rail rail_electric rail_fast ship" speed="83.33" length="3.00" width="3.75" shape="2548.50,228.05 2551.50,228.05"/>
    </edge>
    <edge id=":19#2_0" function="internal">
        <lane id=":19#2_0_0" index="0" disallow="pedestrian tram rail_urban rail rail_electric rail_fast ship" speed="83.33" length="8.00" width="3.50" shape="2604.00,244.67 2596.00,244.67"/>
        <lane id=":19#2_0_1" index="1" disallow="pedestrian tram rail_urban rail rail_electric rail_fast ship" speed="83.33" length="8.00" width="3.75" shape="2604.00,241.05 2596.00,241.05"/>
        <lane id=":19#2_0_2" index="2" disallow="pedestrian tram rail_urban rail rail_electric rail_fast ship" speed="83.33" length="8.00" width="3.75" shape="2604.00,237.30 2596.00,237.30"/>
    </edge>
    <edge id=":19#2_3" function="internal">
        <lane id=":19#2_3_0" index="0" disallow="pedestrian tram rail_urban rail rail_electric rail_fast ship" speed="83.33" length="8.00" width="3.75" shape="2596.00,224.30 2604.00,224.30"/>
        <lane id=":19#2_3_1" index="1" disallow="pedestrian tram rail_urban rail rail_electric rail_fast ship" speed="83.33" length="8.00" width="3.75" shape="2596.00,228.05 2604.00,228.05"/>
    </edge>
    <edge id=":19#3_0" function="internal">
        <lane id=":19#3_0_0" index="0" disallow="pedestrian tram rail_urban rail rail_electric rail_fast ship" speed="83.33" length="3.00" width="3.50" shape="2614.16,244.67 2611.16,244.67"/>
        <lane id=":19#3_0_1" index="1" disallow="pedestrian tram rail_urban rail rail_electric rail_fast ship" speed="83.33" length="3.00" width="3.75" shape="2614.16,241.05 2611.16,241.05"/>
        <lane id=":19#3_0_2" index="2" disallow="pedestrian tram rail_urban rail rail_electric rail_fast ship" speed="83.33" length="3.00" width="3.75" shape="2614.16,237.30 2611.16,237.30"/>
    </edge>
    <edge id=":19#3_3" function="internal">
        <lane id=":19#3_3_0" index="0" allow="emergency authority" speed="83.33" length="3.05" width="3.50" shape="2611.16,221.53 2612.06,221.40 2612.66,221.10 2613.25,220.81 2614.16,220.67"/>
        <lane id=":19#3_3_1" index="1" disallow="pedestrian tram rail_urban rail rail_electric rail_fast ship" speed="83.33" length="3.05" width="3.75" shape="2611.16,224.30 2614.16,224.30"/>
        <lane id=":19#3_3_2" index="2" disallow="pedestrian tram rail_urban rail rail_electric rail_fast ship" speed="83.33" length="3.05" width="3.75" shape="2611.16,228.05 2614.16,228.05"/>
    </edge>
    <edge id=":19#4_0" function="internal">
        <lane id=":19#4_0_0" index="0" disallow="pedestrian tram rail_urban rail rail_electric rail_fast ship" speed="83.33" length="3.00" width="3.50" shape="2751.50,244.67 2748.50,244.67"/>
        <lane id=":19#4_0_1" index="1" disallow="pedestrian tram rail_urban rail rail_electric rail_fast ship" speed="83.33" length="3.00" width="3.75" shape="2751.50,241.05 2748.50,241.05"/>
        <lane id=":19#4_0_2" index="2" disallow="pedestrian tram rail_urban rail rail_electric rail_fast ship" speed="83.33" length="3.00" width="3.75" shape="2751.50,237.30 2748.50,237.30"/>
    </edge>
    <edge id=":19#4_3" function="internal">
        <lane id=":19#4_3_0" index="0" disallow="pedestrian tram rail_urban rail rail_electric rail_fast ship" speed="83.33" length="3.00" width="3.50" shape="2748.50,220.67 2751.50,220.67"/>
        <lane id=":19#4_3_1" index="1" disallow="pedestrian tram rail_urban rail rail_electric rail_fast ship" speed="83.33" length="3.00" width="3.75" shape="2748.50,224.30 2751.50,224.30"/>
        <lane id=":19#4_3_2" index="2" disallow="pedestrian tram rail_urban rail rail_electric rail_fast ship" speed="83.33" length="3.00" width="3.75" shape="2748.50,228.05 2751.50,228.05"/>
    </edge>
    <edge id=":22#1_0" function="internal">
        <lane id=":22#1_0_0" index="0" disallow="pedestrian tram rail_urban rail rail_electric rail_fast ship" speed="83.33" length="3.00" width="3.75" shape="3050.53,241.05 3047.53,241.05"/>
        <lane id=":22#1_0_1" index="1" disallow="pedestrian tram rail_urban rail rail_electric rail_fast ship" speed="83.33" length="3.00" width="3.75" shape="3050.53,237.30 3047.53,237.30"/>
    </edge>
    <edge id=":22#1_2" function="internal">
        <lane id=":22#1_2_0" index="0" disallow="pedestrian tram rail_urban rail rail_electric rail_fast ship" speed="83.33" length="3.12" width="3.50" shape="3047.53,219.38 3048.46,219.58 3049.03,220.03 3049.60,220.47 3050.53,220.67"/>
        <lane id=":22#1_2_1" index="1" disallow="pedestrian tram rail_urban rail rail_electric rail_fast ship" speed="83.33" length="3.12" width="3.75" shape="3047.53,224.30 3050.53,224.30"/>
        <lane id=":22#1_2_2" index="2" disallow="pedestrian tram rail_urban rail rail_electric rail_fast ship" speed="83.33" length="3.12" width="3.75" shape="3047.53,228.05 3050.53,228.05"/>
    </edge>
    <edge id=":22#2_0" function="internal">
        <lane id=":22#2_0_0" index="0" disallow="pedestrian tram rail_urban rail rail_electric rail_fast ship" speed="83.33" length="3.00" width="3.75" shape="3195.30,241.05 3192.30,241.05"/>
        <lane id=":22#2_0_1" index="1" disallow="pedestrian tram rail_urban rail rail_electric rail_fast ship" speed="83.33" length="3.00" width="3.75" shape="3195.30,237.30 3192.30,237.30"/>
    </edge>
    <edge id=":22#2_2" function="internal">
        <lane id=":22#2_2_0" index="0" allow="emergency authority" speed="83.33" length="3.05" width="1.79" shape="3192.30,220.67 3193.21,220.81 3193.80,221.10 3194.39,221.40 3195.30,221.53"/>
        <lane id=":22#2_2_1" index="1" disallow="pedestrian tram rail_urban rail rail_electric rail_fast ship" speed="83.33" length="3.05" width="3.75" shape="3192.30,224.30 3195.30,224.30"/>
        <lane id=":22#2_2_2" index="2" disallow="pedestrian tram rail_urban rail rail_electric rail_fast ship" speed="83.33" length="3.05" width="3.75" shape="3192.30,228.05 3195.30,228.05"/>
    </edge>
    <edge id=":22#3_0" function="internal">
        <lane id=":22#3_0_0" index="0" disallow="pedestrian tram rail_urban rail rail_electric rail_fast ship" speed="83.33" length="8.00" width="3.75" shape="3213.03,241.05 3205.03,241.05"/>
        <lane id=":22#3_0_1" index="1" disallow="pedestrian tram rail_urban rail rail_electric rail_fast ship" speed="83.33" length="8.00" width="3.75" shape="3213.03,237.30 3205.03,237.30"/>
    </edge>
    <edge id=":22#3_2" function="internal">
        <lane id=":22#3_2_0" index="0" disallow="pedestrian tram rail_urban rail rail_electric rail_fast ship" speed="83.33" length="8.00" width="3.75" shape="3205.03,224.30 3213.03,224.30"/>
        <lane id=":22#3_2_1" index="1" disallow="pedestrian tram rail_urban rail rail_electric rail_fast ship" speed="83.33" length="8.00" width="3.75" shape="3205.03,228.05 3213.03,228.05"/>
    </edge>
    <edge id=":22.end_0" function="internal">
        <lane id=":22.end_0_0" index="0" disallow="pedestrian tram rail_urban rail rail_electric rail_fast ship" speed="5.56" length="13.51" width="3.75" shape="5509.03,228.05 5512.50,230.36 5513.66,232.67 5512.50,234.99 5509.03,237.30"/>
    </edge>
    <edge id=":26#1_0" function="internal">
        <lane id=":26#1_0_0" index="0" disallow="pedestrian tram rail_urban rail rail_electric rail_fast ship" speed="19.44" length="3.01" width="3.00" shape="2504.92,410.67,4.81 2507.92,410.93,4.86"/>
    </edge>
    <edge id=":26#2_0" function="internal">
        <lane id=":26#2_0_0" index="0" disallow="pedestrian tram rail_urban rail rail_electric rail_fast ship" speed="19.44" length="8.00" width="3.00" shape="2584.84,411.05,5.88 2592.84,411.07,5.93"/>
    </edge>
    <edge id=":26#3_0" function="internal">
        <lane id=":26#3_0_0" index="0" allow="emergency authority" speed="19.44" length="3.04" width="3.00" shape="2598.73,408.68,5.96 2599.63,408.59,5.96 2600.23,408.39,5.97 2600.83,408.18,5.97 2601.73,408.09,5.97"/>
        <lane id=":26#3_0_1" index="1" disallow="pedestrian tram rail_urban rail rail_electric rail_fast ship" speed="19.44" length="3.04" width="3.00" shape="2598.72,411.08,5.96 2601.72,411.09,5.97"/>
    </edge>
    <edge id=":27#1_0" function="internal">
        <lane id=":27#1_0_0" index="0" allow="emergency authority" speed="19.44" length="3.04" width="1.79" shape="2733.09,408.30,5.55 2733.99,408.39,5.54 2734.59,408.60,5.53 2735.19,408.80,5.53 2736.09,408.89,5.51"/>
        <lane id=":27#1_0_1" index="1" disallow="pedestrian tram rail_urban rail rail_electric rail_fast ship" speed="19.44" length="3.04" width="3.00" shape="2733.10,411.30,5.55 2736.10,411.29,5.51"/>
    </edge>
    <edge id=":27#2_0" function="internal">
        <lane id=":27#2_0_0" index="0" disallow="pedestrian tram rail_urban rail rail_electric rail_fast ship" speed="19.44" length="8.00" width="3.00" shape="2741.59,411.27,5.44 2749.59,411.25,5.32"/>
    </edge>
    <edge id=":27#3_0" function="internal">
        <lane id=":27#3_0_0" index="0" disallow="pedestrian tram rail_urban rail rail_electric rail_fast ship" speed="19.44" length="0.10" width="3.00" shape="2794.21,411.17,4.53 2794.21,411.17,4.53"/>
    </edge>
    <edge id=":28.end_0" function="internal">
        <lane id=":28.end_0_0" index="0" disallow="pedestrian tram rail_urban rail rail_electric rail_fast ship" speed="3.53" length="4.38" width="3.00" shape="2702.10,684.91,3.50 2701.01,685.72,3.50 2700.18,685.82,3.50 2699.60,685.21,3.50 2699.27,683.90,3.50"/>
    </edge>
    <edge id=":29_0" function="internal">
        <lane id=":29_0_0" index="0" disallow="pedestrian tram rail_urban rail rail_electric rail_fast ship" speed="27.78" length="16.75" width="3.00" shape="2666.07,418.17,5.99 2665.95,401.42,6.00"/>
    </edge>
    <edge id=":29_1" function="internal">
        <lane id=":29_1_0" index="0" disallow="pedestrian tram rail_urban rail rail_electric rail_fast ship" speed="7.77" length="2.89" width="3.00" shape="2666.07,418.17,5.99 2666.66,415.34,5.99"/>
    </edge>
    <edge id=":29_8" function="internal">
        <lane id=":29_8_0" index="0" disallow="pedestrian tram rail_urban rail rail_electric rail_fast ship" speed="7.77" length="10.50" width="3.00" shape="2666.66,415.34,5.99 2666.68,415.22,5.99 2668.51,413.11,5.99 2671.56,411.85,5.99 2675.83,411.42,5.99"/>
    </edge>
    <edge id=":29_2" function="internal">
        <lane id=":29_2_0" index="0" disallow="pedestrian tram rail_urban rail rail_electric rail_fast ship" speed="7.09" length="10.99" width="3.00" shape="2669.20,401.42,6.00 2669.61,404.49,6.00 2670.85,406.67,6.00 2672.92,407.99,5.99 2675.82,408.42,5.99"/>
    </edge>
    <edge id=":29_3" function="internal">
        <lane id=":29_3_0" index="0" disallow="pedestrian tram rail_urban rail rail_electric rail_fast ship" speed="27.78" length="16.75" width="3.00" shape="2669.20,401.42,6.00 2669.07,418.17,5.99"/>
    </edge>
    <edge id=":29_4" function="internal">
        <lane id=":29_4_0" index="0" disallow="pedestrian tram rail_urban rail rail_electric rail_fast ship" speed="7.03" length="10.79" width="3.00" shape="2659.32,408.17,6.00 2662.22,407.75,6.00 2664.29,406.49,6.00 2665.53,404.38,6.00 2665.95,401.42,6.00"/>
    </edge>
    <edge id=":29_5" function="internal">
        <lane id=":29_5_0" index="0" disallow="pedestrian tram rail_urban rail rail_electric rail_fast ship" speed="19.44" length="16.51" width="3.00" shape="2659.32,408.17,6.00 2675.82,408.42,5.99"/>
        <lane id=":29_5_1" index="1" disallow="pedestrian tram rail_urban rail rail_electric rail_fast ship" speed="19.44" length="16.51" width="3.00" shape="2659.32,411.17,6.00 2675.83,411.42,5.99"/>
    </edge>
    <edge id=":29_7" function="internal">
        <lane id=":29_7_0" index="0" disallow="pedestrian tram rail_urban rail rail_electric rail_fast ship" speed="7.82" length="13.58" width="3.00" shape="2659.32,411.17,6.00 2663.58,411.61,6.00 2666.63,412.92,6.00 2668.46,415.11,5.99 2669.07,418.17,5.99"/>
    </edge>
    <edge id=":30_0" function="internal">
        <lane id=":30_0_0" index="0" disallow="pedestrian tram rail_urban rail rail_electric rail_fast ship" speed="51.39" length="8.07" width="3.50" shape="2508.38,245.97 2505.98,245.98,0.00 2504.34,246.02,0.00 2502.71,246.15,0.00 2500.33,246.41,0.00"/>
    </edge>
    <edge id=":30_1" function="internal">
        <lane id=":30_1_0" index="0" disallow="pedestrian tram rail_urban rail rail_electric rail_fast ship" speed="83.33" length="8.38" width="3.75" shape="2508.38,241.05 2500.00,241.05"/>
        <lane id=":30_1_1" index="1" disallow="pedestrian tram rail_urban rail rail_electric rail_fast ship" speed="83.33" length="8.38" width="3.75" shape="2508.38,237.30 2500.00,237.30"/>
    </edge>
    <edge id=":30_3" function="internal">
        <lane id=":30_3_0" index="0" disallow="pedestrian tram rail_urban rail rail_electric rail_fast ship" speed="83.33" length="8.38" width="3.75" shape="2500.00,224.30 2508.38,224.30"/>
        <lane id=":30_3_1" index="1" disallow="pedestrian tram rail_urban rail rail_electric rail_fast ship" speed="83.33" length="8.38" width="3.75" shape="2500.00,228.05 2508.38,228.05"/>
    </edge>
    <edge id=":31_0" function="internal">
        <lane id=":31_0_0" index="0" disallow="pedestrian tram rail_urban rail rail_electric rail_fast ship" speed="51.39" length="14.33" width="3.50" shape="2797.77,246.16 2794.46,245.67 2791.48,245.19 2788.08,244.82 2783.54,244.67"/>
    </edge>
    <edge id=":31_1" function="internal">
        <lane id=":31_1_0" index="0" disallow="pedestrian tram rail_urban rail rail_electric rail_fast ship" speed="83.33" length="14.46" width="3.75" shape="2798.00,241.05 2783.54,241.05"/>
        <lane id=":31_1_1" index="1" disallow="pedestrian tram rail_urban rail rail_electric rail_fast ship" speed="83.33" length="14.46" width="3.75" shape="2798.00,237.30 2783.54,237.30"/>
    </edge>
    <edge id=":31_3" function="internal">
        <lane id=":31_3_0" index="0" disallow="pedestrian tram rail_urban rail rail_electric rail_fast ship" speed="83.33" length="14.50" width="3.50" shape="2783.54,220.67 2787.85,220.40 2790.77,219.80 2793.69,219.20 2798.00,218.92"/>
        <lane id=":31_3_1" index="1" disallow="all" speed="83.33" length="14.50" width="1.75" shape="2783.54,222.42 2798.00,221.55"/>
        <lane id=":31_3_2" index="2" disallow="pedestrian tram rail_urban rail rail_electric rail_fast ship" speed="83.33" length="14.50" width="3.75" shape="2783.54,224.30 2798.00,224.30"/>
        <lane id=":31_3_3" index="3" disallow="pedestrian tram rail_urban rail rail_electric rail_fast ship" speed="83.33" length="14.50" width="3.75" shape="2783.54,228.05 2798.00,228.05"/>
    </edge>
    <edge id=":32_0" function="internal">
        <lane id=":32_0_0" index="0" disallow="pedestrian tram rail_urban rail rail_electric rail_fast ship" speed="83.33" length="1.43" width="3.75" shape="2800.00,241.05 2798.57,241.05"/>
        <lane id=":32_0_1" index="1" disallow="pedestrian tram rail_urban rail rail_electric rail_fast ship" speed="83.33" length="1.43" width="3.75" shape="2800.00,237.30 2798.57,237.30"/>
    </edge>
    <edge id=":32_2" function="internal">
        <lane id=":32_2_0" index="0" disallow="pedestrian tram rail_urban rail rail_electric rail_fast ship" speed="51.39" length="3.01" width="3.50" shape="2798.57,218.92 2801.58,218.92,-0.00"/>
    </edge>
    <edge id=":32_3" function="internal">
        <lane id=":32_3_0" index="0" disallow="pedestrian tram rail_urban rail rail_electric rail_fast ship" speed="83.33" length="1.43" width="3.75" shape="2798.57,224.30 2800.00,224.30"/>
        <lane id=":32_3_1" index="1" disallow="pedestrian tram rail_urban rail rail_electric rail_fast ship" speed="83.33" length="1.43" width="3.75" shape="2798.57,228.05 2800.00,228.05"/>
    </edge>
    <edge id=":33_0" function="internal">
        <lane id=":33_0_0" index="0" disallow="pedestrian tram rail_urban rail rail_electric rail_fast ship" speed="83.33" length="8.62" width="3.75" shape="3017.65,241.05 3009.03,241.05"/>
        <lane id=":33_0_1" index="1" disallow="pedestrian tram rail_urban rail rail_electric rail_fast ship" speed="83.33" length="8.62" width="3.75" shape="3017.65,237.30 3009.03,237.30"/>
    </edge>
    <edge id=":33_2" function="internal">
        <lane id=":33_2_0" index="0" disallow="pedestrian tram rail_urban rail rail_electric rail_fast ship" speed="51.39" length="8.32" width="3.50" shape="3009.35,218.93 3011.80,219.19 3013.49,219.32 3015.18,219.37 3017.65,219.38"/>
    </edge>
    <edge id=":33_3" function="internal">
        <lane id=":33_3_0" index="0" disallow="pedestrian tram rail_urban rail rail_electric rail_fast ship" speed="83.33" length="8.62" width="3.75" shape="3009.03,224.30 3017.65,224.30"/>
        <lane id=":33_3_1" index="1" disallow="pedestrian tram rail_urban rail rail_electric rail_fast ship" speed="83.33" length="8.62" width="3.75" shape="3009.03,228.05 3017.65,228.05"/>
    </edge>
    <edge id=":34_0" function="internal">
        <lane id=":34_0_0" index="0" disallow="pedestrian tram rail_urban rail rail_electric rail_fast ship" speed="23.61" length="5.00" width="3.00" shape="2862.22,70.19,2.00 2858.96,66.40,2.00"/>
    </edge>
    <edge id=":34_1" function="internal">
        <lane id=":34_1_0" index="0" disallow="pedestrian tram rail_urban rail rail_electric rail_fast ship" speed="23.61" length="5.03" width="3.50" shape="2861.25,64.10,2.00 2865.06,67.38,2.00"/>
    </edge>
