<net xmlns:xsi="http://www.w3.org/2001/XMLSchema-instance" version="1.9" junctionCornerDetail="5" rectangularLaneCut="true" limitTurnSpeed="5.50" xsi:noNamespaceSchemaLocation="http://sumo.dlr.de/xsd/net_file.xsd">

    <location netOffset="-287974.73,-4679418.03" convBoundary="0.00,0.00,2065.98,1169.78" origBoundary="0.000000,0.000000,0.000000,0.000000" projParameter="+proj=tmerc +lat_0=0 +lon_0=-81 +k=0.9996 +x_0=500000 +y_0=0 +datum=WGS84 +units=m +no_defs" />

    <type id="bidirectional" priority="1" speed="1.39" disallow="pedestrian tram rail_urban rail rail_electric rail_fast ship" width="3.65" />
    <type id="border" priority="0" speed="1.39" disallow="all" discard="0" width="0.10" />
	<type id="driving" priority="1" speed="13.89" disallow="pedestrian tram rail_urban rail rail_electric rail_fast ship" width="3.65" />
		<restriction vClass="passenger" speed="13.89" />
    <type id="entry" priority="1" speed="22.22" disallow="pedestrian tram rail_urban rail rail_electric rail_fast ship" width="3.65" />
    <type id="exit" priority="1" speed="22.22" disallow="pedestrian tram rail_urban rail rail_electric rail_fast ship" width="3.65" />
    <type id="median" priority="0" speed="1.39" disallow="all" discard="0" width="0.10" />
    <type id="mwyEntry" priority="1" speed="22.22" allow="private emergency authority army vip passenger hov taxi bus coach delivery truck trailer motorcycle evehicle custom1 custom2" width="3.65" />
    <type id="mwyExit" priority="1" speed="22.22" allow="private emergency authority army vip passenger hov taxi bus coach delivery truck trailer motorcycle evehicle custom1 custom2" width="3.65" />
    <type id="none" priority="0" speed="1.39" disallow="all" discard="0" width="1.00" />
    <type id="offRamp" priority="1" speed="22.22" allow="private emergency authority army vip passenger hov taxi bus coach delivery truck trailer motorcycle evehicle custom1 custom2" width="3.65" />
    <type id="onRamp" priority="1" speed="22.22" allow="private emergency authority army vip passenger hov taxi bus coach delivery truck trailer motorcycle evehicle custom1 custom2" width="3.65" />
    <type id="parking" priority="1" speed="1.39" disallow="pedestrian tram rail_urban rail rail_electric rail_fast ship" width="2.50" />
    <type id="rail" priority="3" speed="33.33" allow="rail_urban rail rail_electric rail_fast" width="3.65" />
    <type id="restricted" priority="0" speed="13.89" disallow="all" width="3.65" />
    <type id="roadWorks" priority="0" speed="1.39" allow="authority" width="3.65" />
    <type id="shoulder" priority="0" speed="1.39" disallow="all" discard="0" width="1.00" />
    <type id="special1" priority="1" speed="22.22" allow="custom1" discard="0" width="3.65" />
    <type id="special2" priority="1" speed="22.22" allow="custom2" discard="0" width="3.65" />
    <type id="special3" priority="1" speed="22.22" allow="custom1 custom2" discard="0" width="3.65" />
    <type id="stop" priority="1" speed="13.89" disallow="pedestrian tram rail_urban rail rail_electric rail_fast ship" width="3.65" />
    <type id="tram" priority="2" speed="13.89" allow="tram" width="3.65" />

    <edge id=":1000000.1392.76_0" function="internal">
        <lane id=":1000000.1392.76_0_0" index="0" disallow="pedestrian tram rail_urban rail rail_electric rail_fast ship" speed="24.59" length="2.18" width="3.19" shape="313.02,689.80,191.15 311.51,688.19,191.16" />
        <lane id=":1000000.1392.76_0_1" index="1" disallow="pedestrian tram rail_urban rail rail_electric rail_fast ship" speed="24.59" length="2.18" width="3.31" shape="315.31,687.35,191.15 313.75,685.84,191.16" />
    </edge>
    <edge id=":1000000.1394.41_0" function="internal">
        <lane id=":1000000.1394.41_0_0" index="0" disallow="pedestrian tram rail_urban rail rail_electric rail_fast ship" speed="24.59" length="0.87" width="3.19" shape="311.37,688.06,191.16 310.74,687.46,191.16" />
        <lane id=":1000000.1394.41_0_1" index="1" disallow="pedestrian tram rail_urban rail rail_electric rail_fast ship" speed="24.59" length="0.87" width="3.31" shape="313.61,685.70,191.16 312.97,685.10,191.16" />
    </edge>
    <edge id=":1000000.1403.68_0" function="internal">
        <lane id=":1000000.1403.68_0_0" index="0" disallow="pedestrian tram rail_urban rail rail_electric rail_fast ship" speed="24.59" length="3.04" width="3.22" shape="305.22,682.17,191.19 302.97,680.12,191.20" />
        <lane id=":1000000.1403.68_0_1" index="1" disallow="pedestrian tram rail_urban rail rail_electric rail_fast ship" speed="24.59" length="3.04" width="3.39" shape="307.48,679.83,191.19 305.27,677.75,191.20" />
    </edge>
    <edge id=":1000000.278.21_0" function="internal">
        <lane id=":1000000.278.21_0_0" index="0" disallow="pedestrian tram rail_urban rail rail_electric rail_fast ship" speed="24.59" length="2.37" width="3.25" shape="1321.72,1120.09,186.75 1319.40,1119.61,186.76" />
        <lane id=":1000000.278.21_0_1" index="1" disallow="pedestrian tram rail_urban rail rail_electric rail_fast ship" speed="24.59" length="2.37" width="3.33" shape="1322.35,1116.85,186.75 1320.03,1116.38,186.76" />
    </edge>
    <edge id=":1000000.278.74_0" function="internal">
        <lane id=":1000000.278.74_0_0" index="0" disallow="pedestrian tram rail_urban rail rail_electric rail_fast ship" speed="24.59" length="0.60" width="3.25" shape="1319.20,1119.57,186.76 1319.79,1119.68,186.76" />
        <lane id=":1000000.278.74_0_1" index="1" disallow="pedestrian tram rail_urban rail rail_electric rail_fast ship" speed="24.59" length="0.60" width="3.33" shape="1319.83,1116.34,186.76 1320.42,1116.45,186.76" />
    </edge>
    <edge id=":1000000.287.00_0" function="internal">
        <lane id=":1000000.287.00_0_0" index="0" disallow="pedestrian tram rail_urban rail rail_electric rail_fast ship" speed="24.59" length="2.91" width="3.34" shape="1313.04,1118.35,186.78 1310.17,1117.85,186.80" />
        <lane id=":1000000.287.00_0_1" index="1" disallow="pedestrian tram rail_urban rail rail_electric rail_fast ship" speed="24.59" length="2.91" width="3.35" shape="1313.67,1115.12,186.78 1310.82,1114.57,186.80" />
    </edge>
    <edge id=":1000000.780.14_0" function="internal">
        <lane id=":1000000.780.14_0_0" index="0" disallow="pedestrian tram rail_urban rail rail_electric rail_fast ship" speed="24.59" length="2.99" width="3.25" shape="832.34,1009.37,194.12 829.55,1008.27,194.13" />
        <lane id=":1000000.780.14_0_1" index="1" disallow="pedestrian tram rail_urban rail rail_electric rail_fast ship" speed="24.59" length="2.99" width="3.29" shape="833.45,1006.21,194.12 830.65,1005.19,194.13" />
    </edge>
    <edge id=":1000000.827.72_0" function="internal">
        <lane id=":1000000.827.72_0_0" index="0" disallow="pedestrian tram rail_urban rail rail_electric rail_fast ship" speed="24.59" length="3.03" width="3.36" shape="787.69,992.68,194.12 784.83,991.69,194.10" />
        <lane id=":1000000.827.72_0_1" index="1" disallow="pedestrian tram rail_urban rail rail_electric rail_fast ship" speed="24.59" length="3.03" width="3.35" shape="788.88,989.63,194.12 786.05,988.57,194.10" />
    </edge>
    <edge id=":1001000.179.03_0" function="internal">
        <lane id=":1001000.179.03_0_0" index="0" disallow="all" speed="13.89" length="3.20" width="6.70" shape="432.40,420.41,193.44 431.75,421.13,193.47 431.48,421.77,193.49 431.20,422.42,193.52 430.55,423.12,193.55" />
        <lane id=":1001000.179.03_0_1" index="1" disallow="pedestrian tram rail_urban rail rail_electric rail_fast ship" speed="13.89" length="3.20" width="3.61" shape="429.74,417.13,193.44 427.36,419.07,193.55" />
    </edge>
    <edge id=":1001000.179.03_2" function="internal">
        <lane id=":1001000.179.03_2_0" index="0" disallow="pedestrian tram rail_urban rail rail_electric rail_fast ship" speed="13.89" length="3.03" width="2.83" shape="425.28,416.42,193.55 427.73,414.64,193.44" />
    </edge>
    <edge id=":1001000.252.29_0" function="internal">
        <lane id=":1001000.252.29_0_0" index="0" disallow="all" speed="13.89" length="3.03" width="5.76" shape="368.63,460.28,195.77 367.77,460.56,195.79 367.14,460.64,195.81 366.51,460.72,195.82 365.64,460.99,195.84" />
        <lane id=":1001000.252.29_0_1" index="1" disallow="pedestrian tram rail_urban rail rail_electric rail_fast ship" speed="13.89" length="3.03" width="3.57" shape="366.58,455.55,195.77 363.84,456.69,195.84" />
    </edge>
    <edge id=":1001000.252.29_2" function="internal">
        <lane id=":1001000.252.29_2_0" index="0" disallow="pedestrian tram rail_urban rail rail_electric rail_fast ship" speed="13.89" length="2.95" width="3.13" shape="362.53,453.57,195.84 365.25,452.45,195.77" />
    </edge>
    <edge id=":1001000.257.89_0" function="internal">
        <lane id=":1001000.257.89_0_0" index="0" disallow="all" speed="13.89" length="3.01" width="5.65" shape="363.05,462.05,195.90 360.23,463.14,195.96" />
        <lane id=":1001000.257.89_0_1" index="1" disallow="pedestrian tram rail_urban rail rail_electric rail_fast ship" speed="13.89" length="3.01" width="3.62" shape="361.34,457.71,195.90 358.56,458.82,195.96" />
    </edge>
    <edge id=":1001000.257.89_2" function="internal">
        <lane id=":1001000.257.89_2_0" index="0" disallow="pedestrian tram rail_urban rail rail_electric rail_fast ship" speed="13.89" length="2.97" width="3.20" shape="357.32,455.62,195.96 360.09,454.56,195.90" />
    </edge>
    <edge id=":1001000.331.70_0" function="internal">
        <lane id=":1001000.331.70_0_0" index="0" disallow="all" speed="13.89" length="2.95" width="5.81" shape="289.07,479.23,196.14 286.11,479.39,196.09" />
        <lane id=":1001000.331.70_0_1" index="1" disallow="pedestrian tram rail_urban rail rail_electric rail_fast ship" speed="13.89" length="2.95" width="3.49" shape="288.72,474.61,196.14 285.79,474.75,196.09" />
    </edge>
    <edge id=":1001000.331.70_2" function="internal">
        <lane id=":1001000.331.70_2_0" index="0" disallow="pedestrian tram rail_urban rail rail_electric rail_fast ship" speed="13.89" length="2.90" width="3.25" shape="285.57,471.48,196.09 288.45,471.19,196.14" />
    </edge>
    <edge id=":1001000.344.14_0" function="internal">
        <lane id=":1001000.344.14_0_0" index="0" disallow="all" speed="13.89" length="3.05" width="6.71" shape="276.35,479.88,195.92 275.44,479.98,195.90 274.82,480.12,195.89 274.20,480.27,195.88 273.29,480.35,195.86" />
        <lane id=":1001000.344.14_0_1" index="1" disallow="pedestrian tram rail_urban rail rail_electric rail_fast ship" speed="13.89" length="3.05" width="3.42" shape="276.19,475.24,195.92 273.18,475.28,195.86" />
    </edge>
    <edge id=":1001000.344.14_2" function="internal">
        <lane id=":1001000.344.14_2_0" index="0" disallow="pedestrian tram rail_urban rail rail_electric rail_fast ship" speed="13.89" length="2.95" width="3.08" shape="273.12,472.03,195.86 276.07,471.95,195.92" />
    </edge>
    <edge id=":1001000.394.95_0" function="internal">
        <lane id=":1001000.394.95_0_0" index="0" disallow="all" speed="13.89" length="3.02" width="6.41" shape="224.06,476.27,194.40 223.18,476.06,194.37 222.60,475.85,194.35 222.01,475.64,194.33 221.14,475.42,194.30" />
        <lane id=":1001000.394.95_0_1" index="1" disallow="pedestrian tram rail_urban rail rail_electric rail_fast ship" speed="13.89" length="3.02" width="3.29" shape="224.98,471.29,194.40 222.07,470.66,194.30" />
    </edge>
    <edge id=":1001000.394.95_2" function="internal">
        <lane id=":1001000.394.95_2_0" index="0" disallow="pedestrian tram rail_urban rail rail_electric rail_fast ship" speed="13.89" length="2.94" width="3.08" shape="222.68,467.55,194.30 225.57,468.09,194.40" />
    </edge>
    <edge id=":1001000.400.47_0" function="internal">
        <lane id=":1001000.400.47_0_0" index="0" disallow="pedestrian tram rail_urban rail rail_electric rail_fast ship" speed="13.89" length="3.01" width="3.34" shape="219.54,470.15,194.20 216.59,469.55,194.10" />
    </edge>
    <edge id=":1001000.400.47_1" function="internal">
        <lane id=":1001000.400.47_1_0" index="0" disallow="pedestrian tram rail_urban rail rail_electric rail_fast ship" speed="13.89" length="2.96" width="3.04" shape="217.27,466.42,194.10 220.16,467.04,194.20" />
    </edge>
    <edge id=":1001000.530.64_0" function="internal">
        <lane id=":1001000.530.64_0_0" index="0" disallow="pedestrian tram rail_urban rail rail_electric rail_fast ship" speed="13.89" length="3.12" width="3.25" shape="102.08,413.87,191.25 99.67,411.89,191.23" />
    </edge>
    <edge id=":1001000.530.64_1" function="internal">
        <lane id=":1001000.530.64_1_0" index="0" disallow="pedestrian tram rail_urban rail rail_electric rail_fast ship" speed="13.89" length="3.01" width="3.07" shape="101.67,409.49,191.23 104.05,411.34,191.25" />
    </edge>
    <edge id=":1001000.74.92_0" function="internal">
        <lane id=":1001000.74.92_0_0" index="0" disallow="all" speed="13.89" length="3.09" width="4.87" shape="499.02,337.63,190.58 498.65,338.48,190.59 498.49,339.11,190.59 498.33,339.73,190.60 497.95,340.58,190.61" />
        <lane id=":1001000.74.92_0_1" index="1" disallow="pedestrian tram rail_urban rail rail_electric rail_fast ship" speed="13.89" length="3.09" width="3.57" shape="495.76,335.90,190.58 494.25,338.54,190.61" />
    </edge>
    <edge id=":1001000.74.92_2" function="internal">
        <lane id=":1001000.74.92_2_0" index="0" disallow="pedestrian tram rail_urban rail rail_electric rail_fast ship" speed="13.89" length="3.04" width="3.64" shape="491.44,337.00,190.61 491.82,336.19,190.60 491.98,335.59,190.59 492.14,334.99,190.59 492.51,334.17,190.58" />
    </edge>
    <edge id=":1003000.121.89_0" function="internal">
        <lane id=":1003000.121.89_0_0" index="0" disallow="pedestrian tram rail_urban rail rail_electric rail_fast ship" speed="29.06" length="1.99" width="3.56" shape="384.14,732.76,190.33 382.91,731.21,190.32" />
        <lane id=":1003000.121.89_0_1" index="1" disallow="pedestrian tram rail_urban rail rail_electric rail_fast ship" speed="29.06" length="1.99" width="3.53" shape="386.83,730.32,190.33 385.53,728.81,190.32" />
    </edge>
    <edge id=":1003000.123.02_0" function="internal">
        <lane id=":1003000.123.02_0_0" index="0" disallow="pedestrian tram rail_urban rail rail_electric rail_fast ship" speed="29.06" length="2.01" width="3.60" shape="382.78,731.06,190.32 381.38,729.59,190.32" />
        <lane id=":1003000.123.02_0_1" index="1" disallow="pedestrian tram rail_urban rail rail_electric rail_fast ship" speed="29.06" length="2.01" width="3.56" shape="385.39,728.66,190.32 384.05,727.20,190.32" />
    </edge>
    <edge id=":1003000.178.40_0" function="internal">
        <lane id=":1003000.178.40_0_0" index="0" disallow="pedestrian tram rail_urban rail rail_electric rail_fast ship" speed="29.06" length="3.01" width="3.59" shape="348.35,688.30,189.88 346.62,685.81,189.84" />
        <lane id=":1003000.178.40_0_1" index="1" disallow="pedestrian tram rail_urban rail rail_electric rail_fast ship" speed="29.06" length="3.01" width="3.62" shape="351.31,686.29,189.88 349.63,683.83,189.84" />
    </edge>
    <edge id=":1003000.198.29_0" function="internal">
        <lane id=":1003000.198.29_0_0" index="0" disallow="pedestrian tram rail_urban rail rail_electric rail_fast ship" speed="29.06" length="3.00" width="3.54" shape="337.69,671.08,189.51 336.22,668.46,189.45" />
        <lane id=":1003000.198.29_0_1" index="1" disallow="pedestrian tram rail_urban rail rail_electric rail_fast ship" speed="29.06" length="3.00" width="3.69" shape="340.85,669.35,189.51 339.40,666.74,189.45" />
    </edge>
    <edge id=":1003000.203.74_0" function="internal">
        <lane id=":1003000.203.74_0_0" index="0" disallow="pedestrian tram rail_urban rail rail_electric rail_fast ship" speed="29.06" length="2.77" width="3.52" shape="335.03,666.19,189.39 333.75,663.71,189.33" />
        <lane id=":1003000.203.74_0_1" index="1" disallow="pedestrian tram rail_urban rail rail_electric rail_fast ship" speed="29.06" length="2.77" width="3.72" shape="338.24,664.54,189.39 336.99,662.09,189.33" />
    </edge>
    <edge id=":1003000.205.00_0" function="internal">
        <lane id=":1003000.205.00_0_0" index="0" disallow="pedestrian tram rail_urban rail rail_electric rail_fast ship" speed="29.06" length="0.85" width="3.51" shape="333.65,663.51,189.33 333.27,662.73,189.30" />
        <lane id=":1003000.205.00_0_1" index="1" disallow="pedestrian tram rail_urban rail rail_electric rail_fast ship" speed="29.06" length="0.85" width="3.72" shape="336.89,661.89,189.33 336.52,661.14,189.30" />
    </edge>
    <edge id=":1003000.207.30_0" function="internal">
        <lane id=":1003000.207.30_0_0" index="0" disallow="pedestrian tram rail_urban rail rail_electric rail_fast ship" speed="29.06" length="2.57" width="3.61" shape="333.18,662.55,189.30 332.02,660.24,189.24" />
        <lane id=":1003000.207.30_0_1" index="1" disallow="pedestrian tram rail_urban rail rail_electric rail_fast ship" speed="29.06" length="2.57" width="3.72" shape="336.43,660.96,189.30 335.32,658.66,189.24" />
    </edge>
    <edge id=":1003000.380.61_0" function="internal">
        <lane id=":1003000.380.61_0_0" index="0" disallow="pedestrian tram rail_urban rail rail_electric rail_fast ship" speed="29.06" length="3.02" width="3.54" shape="312.41,491.26,184.69 313.16,488.30,184.66" />
        <lane id=":1003000.380.61_0_1" index="1" disallow="pedestrian tram rail_urban rail rail_electric rail_fast ship" speed="29.06" length="3.02" width="3.64" shape="316.01,491.98,184.69 316.67,489.06,184.66" />
    </edge>
    <edge id=":1003000.394.90_0" function="internal">
        <lane id=":1003000.394.90_0_0" index="0" disallow="pedestrian tram rail_urban rail rail_electric rail_fast ship" speed="29.06" length="2.95" width="3.53" shape="315.88,477.03,184.61 316.59,474.16,184.61" />
        <lane id=":1003000.394.90_0_1" index="1" disallow="pedestrian tram rail_urban rail rail_electric rail_fast ship" speed="29.06" length="2.95" width="3.72" shape="319.35,477.96,184.61 320.09,475.12,184.61" />
    </edge>
    <edge id=":1003000.408.48_0" function="internal">
        <lane id=":1003000.408.48_0_0" index="0" disallow="pedestrian tram rail_urban rail rail_electric rail_fast ship" speed="29.06" length="2.94" width="3.44" shape="319.74,463.73,184.65 320.71,460.92,184.66" />
        <lane id=":1003000.408.48_0_1" index="1" disallow="pedestrian tram rail_urban rail rail_electric rail_fast ship" speed="29.06" length="2.94" width="3.73" shape="323.19,464.84,184.65 324.10,462.08,184.66" />
    </edge>
    <edge id=":1003000.419.78_0" function="internal">
        <lane id=":1003000.419.78_0_0" index="0" disallow="pedestrian tram rail_urban rail rail_electric rail_fast ship" speed="29.06" length="3.02" width="3.48" shape="323.60,452.98,184.75 324.76,450.17,184.79" />
        <lane id=":1003000.419.78_0_1" index="1" disallow="pedestrian tram rail_urban rail rail_electric rail_fast ship" speed="29.06" length="3.02" width="3.67" shape="326.94,454.29,184.75 328.07,451.52,184.79" />
    </edge>
    <edge id=":1003000.438.76_0" function="internal">
        <lane id=":1003000.438.76_0_0" index="0" disallow="pedestrian tram rail_urban rail rail_electric rail_fast ship" speed="29.06" length="8.32" width="3.60" shape="330.55,437.44,185.04 331.38,435.12,185.10 331.55,433.38,185.14 331.73,431.66,185.18 332.64,429.38,185.23" />
        <lane id=":1003000.438.76_0_1" index="1" disallow="pedestrian tram rail_urban rail rail_electric rail_fast ship" speed="29.06" length="8.32" width="3.72" shape="333.74,439.04,185.04 334.57,436.77,185.10 334.75,435.07,185.14 334.95,433.38,185.18 335.85,431.14,185.23" />
    </edge>
    <edge id=":1003000.470.92_0" function="internal">
        <lane id=":1003000.470.92_0_0" index="0" disallow="pedestrian tram rail_urban rail rail_electric rail_fast ship" speed="29.06" length="3.19" width="3.62" shape="346.01,406.06,186.12 346.34,405.18,186.15 346.32,404.48,186.17 346.29,403.78,186.20 346.63,402.90,186.23" />
        <lane id=":1003000.470.92_0_1" index="1" disallow="pedestrian tram rail_urban rail rail_electric rail_fast ship" speed="29.06" length="3.19" width="3.62" shape="349.14,407.97,186.12 349.46,407.09,186.15 349.41,406.39,186.17 349.37,405.70,186.20 349.70,404.83,186.23" />
        <lane id=":1003000.470.92_0_2" index="2" allow="emergency authority" speed="29.06" length="3.19" width="3.02" shape="351.49,409.41,186.12 351.86,408.61,186.15 351.99,408.00,186.17 352.12,407.39,186.20 352.51,406.59,186.23" />
    </edge>
    <edge id=":1005000.132.14_0" function="internal">
        <lane id=":1005000.132.14_0_0" index="0" allow="emergency authority" speed="29.06" length="3.04" width="1.80" shape="1519.42,887.18,189.17 1519.13,888.05,189.20 1518.75,888.59,189.22 1518.37,889.13,189.24 1518.07,890.00,189.27" />
        <lane id=":1005000.132.14_0_1" index="1" disallow="pedestrian tram rail_urban rail rail_electric rail_fast ship" speed="29.06" length="3.04" width="3.91" shape="1515.73,886.47,189.17 1515.27,889.44,189.27" />
        <lane id=":1005000.132.14_0_2" index="2" disallow="pedestrian tram rail_urban rail rail_electric rail_fast ship" speed="29.06" length="3.04" width="3.57" shape="1512.16,885.80,189.17 1511.60,888.70,189.27" />
    </edge>
    <edge id=":1005000.167.06_0" function="internal">
        <lane id=":1005000.167.06_0_0" index="0" disallow="pedestrian tram rail_urban rail rail_electric rail_fast ship" speed="29.06" length="8.02" width="3.91" shape="1507.64,918.46,190.36 1504.92,926.09,190.66" />
        <lane id=":1005000.167.06_0_1" index="1" disallow="pedestrian tram rail_urban rail rail_electric rail_fast ship" speed="29.06" length="8.02" width="3.55" shape="1504.09,917.30,190.36 1501.43,924.77,190.66" />
    </edge>
    <edge id=":1005000.207.66_0" function="internal">
        <lane id=":1005000.207.66_0_0" index="0" disallow="pedestrian tram rail_urban rail rail_electric rail_fast ship" speed="29.06" length="3.00" width="3.74" shape="1489.88,958.66,191.73 1488.28,961.23,191.79" />
        <lane id=":1005000.207.66_0_1" index="1" disallow="pedestrian tram rail_urban rail rail_electric rail_fast ship" speed="29.06" length="3.00" width="3.48" shape="1486.60,956.89,191.73 1485.14,959.46,191.79" />
    </edge>
    <edge id=":1005000.213.00_0" function="internal">
        <lane id=":1005000.213.00_0_0" index="0" disallow="pedestrian tram rail_urban rail rail_electric rail_fast ship" speed="29.06" length="2.28" width="3.75" shape="1487.11,963.30,191.84 1485.98,965.31,191.88" />
        <lane id=":1005000.213.00_0_1" index="1" disallow="pedestrian tram rail_urban rail rail_electric rail_fast ship" speed="29.06" length="2.28" width="3.48" shape="1483.97,961.53,191.84 1482.86,963.48,191.88" />
    </edge>
    <edge id=":1005000.214.65_0" function="internal">
        <lane id=":1005000.214.65_0_0" index="0" disallow="pedestrian tram rail_urban rail rail_electric rail_fast ship" speed="29.06" length="2.22" width="3.91" shape="1485.87,965.48,191.88 1484.81,967.45,191.92" />
        <lane id=":1005000.214.65_0_1" index="1" disallow="pedestrian tram rail_urban rail rail_electric rail_fast ship" speed="29.06" length="2.22" width="3.48" shape="1482.75,963.66,191.88 1481.64,965.55,191.92" />
    </edge>
    <edge id=":1005000.293.08_0" function="internal">
        <lane id=":1005000.293.08_0_0" index="0" disallow="pedestrian tram rail_urban rail rail_electric rail_fast ship" speed="29.06" length="3.02" width="3.79" shape="1435.66,1026.14,192.11 1433.35,1028.11,192.06" />
        <lane id=":1005000.293.08_0_1" index="1" disallow="pedestrian tram rail_urban rail rail_electric rail_fast ship" speed="29.06" length="3.02" width="3.51" shape="1433.23,1023.36,192.11 1430.97,1025.34,192.06" />
    </edge>
    <edge id=":1005000.310.98_0" function="internal">
        <lane id=":1005000.310.98_0_0" index="0" disallow="pedestrian tram rail_urban rail rail_electric rail_fast ship" speed="29.06" length="2.99" width="3.68" shape="1421.30,1037.64,191.78 1418.88,1039.46,191.72" />
        <lane id=":1005000.310.98_0_1" index="1" disallow="pedestrian tram rail_urban rail rail_electric rail_fast ship" speed="29.06" length="2.99" width="3.62" shape="1419.13,1034.71,191.78 1416.77,1036.48,191.72" />
    </edge>
    <edge id=":1005000.423.02_0" function="internal">
        <lane id=":1005000.423.02_0_0" index="0" disallow="pedestrian tram rail_urban rail rail_electric rail_fast ship" speed="29.06" length="3.02" width="3.73" shape="1318.73,1085.17,188.07 1315.74,1085.75,187.98" />
        <lane id=":1005000.423.02_0_1" index="1" disallow="pedestrian tram rail_urban rail rail_electric rail_fast ship" speed="29.06" length="3.02" width="3.59" shape="1318.01,1081.59,188.07 1315.07,1082.15,187.98" />
    </edge>
    <edge id=":1005000.434.88_0" function="internal">
        <lane id=":1005000.434.88_0_0" index="0" disallow="pedestrian tram rail_urban rail rail_electric rail_fast ship" speed="29.06" length="0.30" width="3.75" shape="1305.47,1087.45,187.66 1305.18,1087.48,187.65" />
        <lane id=":1005000.434.88_0_1" index="1" disallow="pedestrian tram rail_urban rail rail_electric rail_fast ship" speed="29.06" length="0.30" width="3.57" shape="1304.97,1083.83,187.66 1304.66,1083.86,187.65" />
    </edge>
    <edge id=":1005000.480.85_0" function="internal">
        <lane id=":1005000.480.85_0_0" index="0" disallow="pedestrian tram rail_urban rail rail_electric rail_fast ship" speed="29.06" length="2.98" width="3.68" shape="1260.25,1090.42,186.72 1257.24,1090.31,186.72" />
        <lane id=":1005000.480.85_0_1" index="1" disallow="pedestrian tram rail_urban rail rail_electric rail_fast ship" speed="29.06" length="2.98" width="3.58" shape="1260.33,1086.77,186.72 1257.38,1086.68,186.72" />
    </edge>
    <edge id=":1005000.570.08_0" function="internal">
        <lane id=":1005000.570.08_0_0" index="0" disallow="pedestrian tram rail_urban rail rail_electric rail_fast ship" speed="29.06" length="3.01" width="3.69" shape="1171.58,1077.30,187.51 1168.59,1076.90,187.55" />
        <lane id=":1005000.570.08_0_1" index="1" disallow="pedestrian tram rail_urban rail rail_electric rail_fast ship" speed="29.06" length="3.01" width="3.68" shape="1172.18,1073.72,187.51 1169.20,1073.27,187.55" />
    </edge>
    <edge id=":1005000.71.22_0" function="internal">
        <lane id=":1005000.71.22_0_0" index="0" disallow="pedestrian tram rail_urban rail rail_electric rail_fast ship" speed="29.06" length="3.02" width="3.83" shape="1524.62,825.07,187.15 1524.53,825.97,187.18 1524.37,826.57,187.20 1524.20,827.17,187.22 1524.12,828.07,187.25" />
        <lane id=":1005000.71.22_0_1" index="1" disallow="pedestrian tram rail_urban rail rail_electric rail_fast ship" speed="29.06" length="3.02" width="3.69" shape="1520.36,825.00,187.15 1520.36,828.01,187.25" />
        <lane id=":1005000.71.22_0_2" index="2" disallow="pedestrian tram rail_urban rail rail_electric rail_fast ship" speed="29.06" length="3.02" width="3.56" shape="1516.75,824.95,187.15 1516.74,827.95,187.25" />
    </edge>
    <edge id=":1005000.916.70_0" function="internal">
        <lane id=":1005000.916.70_0_0" index="0" disallow="pedestrian tram rail_urban rail rail_electric rail_fast ship" speed="29.06" length="3.06" width="3.62" shape="834.25,1001.09,193.85 831.38,1000.01,193.87" />
        <lane id=":1005000.916.70_0_1" index="1" disallow="pedestrian tram rail_urban rail rail_electric rail_fast ship" speed="29.06" length="3.06" width="3.65" shape="835.48,997.62,193.85 832.59,996.59,193.87" />
    </edge>
    <edge id=":1005000.964.02_0" function="internal">
        <lane id=":1005000.964.02_0_0" index="0" disallow="pedestrian tram rail_urban rail rail_electric rail_fast ship" speed="29.06" length="3.05" width="3.56" shape="789.87,984.41,193.82 787.04,983.26,193.81" />
        <lane id=":1005000.964.02_0_1" index="1" disallow="pedestrian tram rail_urban rail rail_electric rail_fast ship" speed="29.06" length="3.05" width="3.63" shape="791.20,981.02,193.82 788.35,979.91,193.81" />
    </edge>
    <edge id=":1005000.988.29_0" function="internal">
        <lane id=":1005000.988.29_0_0" index="0" disallow="pedestrian tram rail_urban rail rail_electric rail_fast ship" speed="29.06" length="2.29" width="3.60" shape="767.27,975.38,193.64 765.20,974.45,193.62" />
        <lane id=":1005000.988.29_0_1" index="1" disallow="pedestrian tram rail_urban rail rail_electric rail_fast ship" speed="29.06" length="2.29" width="3.52" shape="768.63,972.06,193.64 766.53,971.14,193.62" />
    </edge>
    <edge id=":1005000.989.99_0" function="internal">
        <lane id=":1005000.989.99_0_0" index="0" disallow="pedestrian tram rail_urban rail rail_electric rail_fast ship" speed="29.06" length="2.22" width="3.63" shape="765.01,974.37,193.62 762.90,973.64,193.59" />
        <lane id=":1005000.989.99_0_1" index="1" disallow="pedestrian tram rail_urban rail rail_electric rail_fast ship" speed="29.06" length="2.22" width="3.63" shape="766.34,971.07,193.62 764.27,970.28,193.59" />
    </edge>
    <edge id=":1006000.230.88_0" function="internal">
        <lane id=":1006000.230.88_0_0" index="0" disallow="all" speed="13.89" length="1.95" width="2.78" shape="1527.38,649.44,185.23 1526.12,650.92,185.21" />
        <lane id=":1006000.230.88_0_1" index="1" disallow="pedestrian tram rail_urban rail rail_electric rail_fast ship" speed="29.06" length="1.95" width="3.64" shape="1524.26,649.44,185.23 1522.91,650.92,185.21" />
        <lane id=":1006000.230.88_0_2" index="2" disallow="pedestrian tram rail_urban rail rail_electric rail_fast ship" speed="29.06" length="1.95" width="4.05" shape="1520.62,649.44,185.23 1519.07,650.92,185.21" />
        <lane id=":1006000.230.88_0_3" index="3" allow="emergency authority" speed="29.06" length="1.95" width="1.40" shape="1517.19,649.44,185.23 1516.34,650.92,185.21" />
    </edge>