<?xml version="1.0" encoding="UTF-8"?>

<!-- generated on 2022-02-21 21:39:30 by Eclipse SUMO netedit Version 1.9.2
<configuration xmlns:xsi="http://www.w3.org/2001/XMLSchema-instance" xsi:noNamespaceSchemaLocation="http://sumo.dlr.de/xsd/netconvertConfiguration.xsd">

    <input>
        <sumo-net-file value="D:\Dropbox%20(ORNL)\2_projects\1_1_9_1b\2_2_RealSim\SUMOfiles\ACM_coordMerge_v2.net.xml"/>
    </input>

    <output>
        <output-file value="D:\Dropbox%20(ORNL)\2_projects\1_1_9_1b\2_2_RealSim\SUMOfiles\ACM_coordMerge_v2.net.xml"/>
    </output>

    <processing>
        <geometry.min-radius.fix.railways value="false"/>
        <geometry.max-grade.fix value="false"/>
        <offset.disable-normalization value="true"/>
        <lefthand value="false"/>
    </processing>

    <junctions>
        <no-turnarounds value="true"/>
        <junctions.corner-detail value="5"/>
        <junctions.limit-turn-speed value="5.5"/>
        <rectangular-lane-cut value="true"/>
    </junctions>

    <pedestrian>
        <walkingareas value="false"/>
    </pedestrian>

    <netedit>
        <route-files value="D:\Dropbox%20(ORNL)\2_projects\1_1_9_1b\2_2_RealSim\SUMOfiles\ACM_coordMerge_v2.rou.xml"/>
    </netedit>

    <report>
        <aggregate-warnings value="5"/>
    </report>

</configuration>
-->

<routes xmlns:xsi="http://www.w3.org/2001/XMLSchema-instance" xsi:noNamespaceSchemaLocation="http://sumo.dlr.de/xsd/routes_file.xsd">
    <vType id="CAV_LDV"/>
	<!-- <vType id="CAV_HGV" vClass="trailer" emissionClass="HBEFA3/HDV" guiShape="truck" width="2.40" height="2.40" accel="1.1" decel="4" emergencyDecel="7" apparentDecel="4"/> -->
	<vType id="CAV_HGV" vClass="trailer" guiShape="truck"/>
	<route edges="-1008000.0.00 -1008000.127.18 -1008000.127.36 -1008000.203.53 -1008000.252.14 -1008000.284.93 -1008000.289.23 -1006000.0.00 -1006000.65.28 -1006000.82.49 -1006000.230.88 -1006000.231.07 -1006000.250.21 -1006000.289.31 -1005000.0.00 -1005000.71.22 -1005000.132.14 -1005000.167.06 -1005000.207.66 -1005000.213.00 -1005000.214.65 -1005000.293.08 -1005000.310.98 -1005000.423.02 -1005000.434.88 -1005000.480.85 -1005000.570.08" color="yellow" id="route_0"/>
    <route edges="-1007000.0.00 -1007000.302.53 -1007000.303.22 -1007000.303.47 -1005000.0.00 -1005000.71.22 -1005000.132.14 -1005000.167.06 -1005000.207.66 -1005000.213.00 -1005000.214.65 -1005000.293.08 -1005000.310.98 -1005000.423.02 -1005000.434.88 -1005000.480.85 -1005000.570.08" color="yellow" id="route_1"/>
	<flow id="flow_0" type="CAV_LDV" begin="0.00" departSpeed="desired" color="128,128,0" route="route_0" end="43.00" vehsPerHour="1000.00"/>
    <flow id="flow_1" type="CAV_LDV" begin="0.00" departSpeed="desired" route="route_1" end="67.00" vehsPerHour="800.00"/>
	<vehicle id="vehicle_0" type="CAV_LDV" depart="43.2" departSpeed="13.4" speedFactor="0.9647" color="255,0,0" route="route_0"/>
	<flow id="flow_2" type="CAV_LDV" begin="46" departSpeed="desired" color="128,128,0" route="route_0" end="300.00" vehsPerHour="1000.00"/>
	<vehicle id="vehicle_1" type="CAV_HGV" depart="67.5" departSpeed="13.8" speedFactor="0.9935" color="0,0,255" route="route_1"/>		
	<flow id="flow_3" type="CAV_LDV" begin="71" departSpeed="desired" color="128,128,0" route="route_1" end="300.00" vehsPerHour="800.00"/>
</routes>
