<?xml version="1.0" encoding="UTF-8"?>

<!-- generated on 2022-01-05 16:57:18 by Eclipse SUMO netedit Version 1.9.2
<configuration xmlns:xsi="http://www.w3.org/2001/XMLSchema-instance" xsi:noNamespaceSchemaLocation="http://sumo.dlr.de/xsd/netconvertConfiguration.xsd">

    <input>
        <sumo-net-file value="D:\Dropbox%20(ORNL)\2_projects\1_1_9_1b\2_2_RealSim\SUMOfiles\ACM_coordMerge_v1.net.xml"/>
    </input>

    <output>
        <output-file value="D:\Dropbox%20(ORNL)\2_projects\1_1_9_1b\2_2_RealSim\SUMOfiles\ACM_coordMerge_v1.net.xml"/>
    </output>

    <processing>
        <geometry.min-radius.fix.railways value="false"/>
        <geometry.max-grade.fix value="false"/>
        <offset.disable-normalization value="true"/>
        <lefthand value="false"/>
    </processing>

    <junctions>
        <no-turnarounds value="true"/>
        <junctions.corner-detail value="5"/>
        <junctions.limit-turn-speed value="5.5"/>
        <rectangular-lane-cut value="true"/>
    </junctions>

    <pedestrian>
        <walkingareas value="false"/>
    </pedestrian>

    <netedit>
        <route-files value="D:\Dropbox%20(ORNL)\2_projects\1_1_9_1b\2_2_RealSim\SUMOfiles\ACM_coordMerge_v1.rou.xml"/>
    </netedit>

    <report>
        <aggregate-warnings value="5"/>
    </report>

</configuration>
-->

<routes xmlns:xsi="http://www.w3.org/2001/XMLSchema-instance" xsi:noNamespaceSchemaLocation="http://sumo.dlr.de/xsd/routes_file.xsd">
    <vType id="CAV_LDV"/>
    <route edges="-1008000.0.00 -1008000.127.18 -1008000.127.36 -1008000.203.53 -1008000.252.14 -1008000.284.93 -1008000.289.23 -1006000.0.00 -1006000.65.28 -1006000.82.49 -1006000.230.88 -1006000.231.07 -1006000.250.21 -1006000.289.31 -1005000.0.00 -1005000.71.22 -1005000.132.14 -1005000.167.06 -1005000.207.66 -1005000.213.00 -1005000.214.65 -1005000.293.08 -1005000.310.98 -1005000.423.02 -1005000.434.88 -1005000.480.85 -1005000.570.08" color="yellow" id="route_0"/>
    <route edges="-1010000.131.17 -1010000.453.24 -1010000.460.94 -1010000.465.51 -1007000.0.00 -1007000.302.53 -1007000.303.22 -1007000.303.47 -1005000.0.00 -1005000.71.22 -1005000.132.14 -1005000.167.06 -1005000.207.66 -1005000.213.00 -1005000.214.65 -1005000.293.08 -1005000.310.98 -1005000.423.02 -1005000.434.88 -1005000.480.85 -1005000.570.08" color="yellow" id="route_1"/>
    <flow id="flow_0" type="CAV_LDV" begin="0.00" departSpeed="desired" route="route_0" end="300.00" vehsPerHour="1000.00"/>
    <flow id="flow_1" type="CAV_LDV" begin="0.00" departSpeed="desired" route="route_1" end="300.00" vehsPerHour="800.00"/>
</routes>
