<?xml version="1.0" encoding="UTF-8"?>

<!-- generated on 2024-05-09 15:28:25 by Eclipse SUMO jtrrouter Version 1.16.0
<configuration xmlns:xsi="http://www.w3.org/2001/XMLSchema-instance" xsi:noNamespaceSchemaLocation="http://sumo.dlr.de/xsd/jtrrouterConfiguration.xsd">

    <input>
        <net-file value="C:\Users\ets\Dropbox (ORNL)\VSI_Projects\Projects Folder\CC_RealTwin\Preliminary Calibration\calibration_driver_behavior\targetTravelTime\actuated_GEHCalibrated_v1\chatt.net.xml"/>
        <route-files value="C:\Users\ets\Dropbox (ORNL)\VSI_Projects\Projects Folder\CC_RealTwin\Preliminary Calibration\calibration_driver_behavior\targetTravelTime\actuated_GEHCalibrated_v1\chatt.flow.xml"/>
        <turn-ratio-files value="C:\Users\ets\Dropbox (ORNL)\VSI_Projects\Projects Folder\CC_RealTwin\Preliminary Calibration\calibration_driver_behavior\targetTravelTime\actuated_GEHCalibrated_v1\chatt.turn.xml"/>
    </input>

    <output>
        <output-file value="C:\Users\ets\Dropbox (ORNL)\VSI_Projects\Projects Folder\CC_RealTwin\Preliminary Calibration\calibration_driver_behavior\targetTravelTime\actuated_GEHCalibrated_v1\chatt.rou.xml"/>
    </output>

    <processing>
        <remove-loops value="true"/>
        <accept-all-destinations value="true"/>
    </processing>

    <report>
        <ignore-errors value="true"/>
    </report>

</configuration>
-->

<routes xmlns:xsi="http://www.w3.org/2001/XMLSchema-instance" xsi:noNamespaceSchemaLocation="http://sumo.dlr.de/xsd/routes_file.xsd">
    <vType id="car" minGap="2.50" accel="2.6" decel="4.5" emergencyDecel="9.0" sigma="0.5" tau="1.0"/>
    <vehicle id="1.0" type="car" depart="28800.00">
        <route edges="-309 -296"/>
    </vehicle>
    <vehicle id="10.0" type="car" depart="28800.00">
        <route edges="-318 -282"/>
    </vehicle>
    <vehicle id="11.0" type="car" depart="28800.00">
        <route edges="-331 -297 -288 -286 -302 -323"/>
    </vehicle>
    <vehicle id="12.0" type="car" depart="28800.00">
        <route edges="-320 -3221 -322 -313 -282"/>
    </vehicle>
    <vehicle id="13.0" type="car" depart="28800.00">
        <route edges="-316 -313 -284 -328 -305"/>
    </vehicle>
    <vehicle id="14.0" type="car" depart="28800.00">
        <route edges="-330 -327 -281 -315 -321 -300 -2851 -285 -289"/>
    </vehicle>
    <vehicle id="15.0" type="car" depart="28800.00">
        <route edges="-292 -290 -299"/>
    </vehicle>
    <vehicle id="16.0" type="car" depart="28800.00">
        <route edges="-310 -286 -302 -323"/>
    </vehicle>
    <vehicle id="2.0" type="car" depart="28800.00">
        <route edges="-312 -293 -297 -288 -286 -302 -3221 -322 -313 -284 -328 -304"/>
    </vehicle>
    <vehicle id="3.0" type="car" depart="28800.00">
        <route edges="-324 -293 -297 -289"/>
    </vehicle>
    <vehicle id="4.0" type="car" depart="28800.00">
        <route edges="-2801 -280 -307 -327 -281 -315 -321 -300 -2851 -285 -290 -298 -295"/>
    </vehicle>
    <vehicle id="5.0" type="car" depart="28800.00">
        <route edges="-308 -307 -327 -281 -315 -321 -301"/>
    </vehicle>
    <vehicle id="6.0" type="car" depart="28800.00">
        <route edges="-326 -305"/>
    </vehicle>
    <vehicle id="7.0" type="car" depart="28800.00">
        <route edges="-319 -300 -2851 -285 -289"/>
    </vehicle>
    <vehicle id="8.0" type="car" depart="28800.00">
        <route edges="-325 -300 -287"/>
    </vehicle>
    <vehicle id="9.0" type="car" depart="28800.00">
        <route edges="-317 -281 -315 -323"/>
    </vehicle>
    <vehicle id="16.1" type="car" depart="28804.69">
        <route edges="-310 -286 -302 -3221 -322 -313 -284 -328 -304"/>
    </vehicle>
    <vehicle id="4.1" type="car" depart="28804.84">
        <route edges="-2801 -280 -307 -327 -281 -315 -321 -300 -2851 -285 -290 -298 -295"/>
    </vehicle>
    <vehicle id="15.1" type="car" depart="28805.33">
        <route edges="-292 -288 -287"/>
    </vehicle>
    <vehicle id="2.1" type="car" depart="28807.32">
        <route edges="-312 -293 -297 -288 -286 -302 -323"/>
    </vehicle>
    <vehicle id="12.1" type="car" depart="28808.91">
        <route edges="-320 -3221 -322 -313 -284 -329"/>
    </vehicle>
    <vehicle id="13.1" type="car" depart="28809.18">
        <route edges="-316 -313 -284 -328 -304"/>
    </vehicle>
    <vehicle id="5.1" type="car" depart="28809.18">
        <route edges="-308 -306"/>
    </vehicle>
    <vehicle id="14.1" type="car" depart="28809.28">
        <route edges="-330 -328 -304"/>
    </vehicle>
    <vehicle id="16.2" type="car" depart="28809.37">
        <route edges="-310 -286 -302 -323"/>
    </vehicle>
    <vehicle id="11.1" type="car" depart="28809.47">
        <route edges="-331 -297 -288 -286 -302 -3221 -322 -313 -284 -328 -304"/>
    </vehicle>
    <vehicle id="4.2" type="car" depart="28809.68">
        <route edges="-2801 -280 -307 -329"/>
    </vehicle>
    <vehicle id="15.2" type="car" depart="28810.65">
        <route edges="-292 -288 -287"/>
    </vehicle>
    <vehicle id="6.1" type="car" depart="28812.50">
        <route edges="-326 -305"/>
    </vehicle>
    <vehicle id="16.3" type="car" depart="28814.06">
        <route edges="-310 -286 -302 -323"/>
    </vehicle>
    <vehicle id="4.3" type="car" depart="28814.51">
        <route edges="-2801 -280 -307 -327 -281 -315 -321 -300 -2851 -285 -290 -298 -294"/>
    </vehicle>
    <vehicle id="2.2" type="car" depart="28814.63">
        <route edges="-312 -296"/>
    </vehicle>
    <vehicle id="15.3" type="car" depart="28815.98">
        <route edges="-292 -290 -298 -295"/>
    </vehicle>
    <vehicle id="12.2" type="car" depart="28817.82">
        <route edges="-320 -3221 -322 -313 -284 -328 -304"/>
    </vehicle>
    <vehicle id="13.2" type="car" depart="28818.37">
        <route edges="-316 -313 -284 -328 -305"/>
    </vehicle>
    <vehicle id="5.2" type="car" depart="28818.37">
        <route edges="-308 -307 -327 -281 -315 -321 -300 -287"/>
    </vehicle>
    <vehicle id="14.2" type="car" depart="28818.56">
        <route edges="-330 -327 -281 -315 -321 -300 -2851 -285 -289"/>
    </vehicle>
    <vehicle id="16.4" type="car" depart="28818.75">
        <route edges="-310 -286 -302 -323"/>
    </vehicle>
    <vehicle id="11.2" type="car" depart="28818.95">
        <route edges="-331 -297 -288 -286 -302 -323"/>
    </vehicle>
    <vehicle id="4.4" type="car" depart="28819.35">
        <route edges="-2801 -280 -307 -327 -281 -315 -321 -300 -287"/>
    </vehicle>
    <vehicle id="15.4" type="car" depart="28821.30">
        <route edges="-292 -288 -286 -302 -323"/>
    </vehicle>
    <vehicle id="2.3" type="car" depart="28821.95">
        <route edges="-312 -293 -297 -289"/>
    </vehicle>
    <vehicle id="7.1" type="car" depart="28823.08">
        <route edges="-319 -300 -287"/>
    </vehicle>
    <vehicle id="16.5" type="car" depart="28823.44">
        <route edges="-310 -286 -302 -323"/>
    </vehicle>
    <vehicle id="4.5" type="car" depart="28824.19">
        <route edges="-2801 -280 -307 -327 -281 -315 -321 -300 -2851 -285 -290 -298 -295"/>
    </vehicle>
    <vehicle id="6.2" type="car" depart="28825.00">
        <route edges="-326 -307 -327 -281 -315 -323"/>
    </vehicle>
    <vehicle id="15.5" type="car" depart="28826.63">
        <route edges="-292 -288 -286 -302 -3221 -322 -313 -284 -329"/>
    </vehicle>
    <vehicle id="12.3" type="car" depart="28826.73">
        <route edges="-320 -3221 -322 -314"/>
    </vehicle>
    <vehicle id="13.3" type="car" depart="28827.55">
        <route edges="-316 -313 -284 -328 -304"/>
    </vehicle>
    <vehicle id="5.3" type="car" depart="28827.55">
        <route edges="-308 -307 -327 -281 -315 -321 -301"/>
    </vehicle>
    <vehicle id="14.3" type="car" depart="28827.83">
        <route edges="-330 -327 -281 -315 -321 -300 -2851 -285 -290 -298 -295"/>
    </vehicle>
    <vehicle id="16.6" type="car" depart="28828.12">
        <route edges="-310 -2851 -285 -290 -298 -295"/>
    </vehicle>
    <vehicle id="11.3" type="car" depart="28828.42">
        <route edges="-331 -298 -295"/>
    </vehicle>
    <vehicle id="4.6" type="car" depart="28829.03">
        <route edges="-2801 -280 -307 -327 -281 -315 -321 -300 -2851 -285 -289"/>
    </vehicle>
    <vehicle id="2.4" type="car" depart="28829.27">
        <route edges="-312 -293 -297 -289"/>
    </vehicle>
    <vehicle id="3.1" type="car" depart="28831.03">
        <route edges="-324 -295"/>
    </vehicle>
    <vehicle id="15.6" type="car" depart="28831.95">
        <route edges="-292 -290 -298 -295"/>
    </vehicle>
    <vehicle id="10.1" type="car" depart="28832.14">
        <route edges="-318 -282"/>
    </vehicle>
    <vehicle id="16.7" type="car" depart="28832.81">
        <route edges="-310 -2851 -285 -290 -298 -295"/>
    </vehicle>
    <vehicle id="4.7" type="car" depart="28833.87">
        <route edges="-2801 -280 -306"/>
    </vehicle>
    <vehicle id="12.4" type="car" depart="28835.64">
        <route edges="-320 -3221 -322 -313 -284 -328 -305"/>
    </vehicle>
    <vehicle id="2.5" type="car" depart="28836.59">
        <route edges="-312 -293 -299"/>
    </vehicle>
    <vehicle id="13.4" type="car" depart="28836.73">
        <route edges="-316 -313 -284 -328 -304"/>
    </vehicle>
    <vehicle id="5.4" type="car" depart="28836.73">
        <route edges="-308 -306"/>
    </vehicle>
    <vehicle id="14.4" type="car" depart="28837.11">
        <route edges="-330 -328 -306"/>
    </vehicle>
    <vehicle id="15.7" type="car" depart="28837.28">
        <route edges="-292 -290 -298 -295"/>
    </vehicle>
    <vehicle id="16.8" type="car" depart="28837.50">
        <route edges="-310 -287"/>
    </vehicle>
    <vehicle id="6.3" type="car" depart="28837.50">
        <route edges="-326 -307 -329"/>
    </vehicle>
    <vehicle id="11.4" type="car" depart="28837.89">
        <route edges="-331 -298 -294"/>
    </vehicle>
    <vehicle id="4.8" type="car" depart="28838.70">
        <route edges="-2801 -280 -307 -329"/>
    </vehicle>
    <vehicle id="16.9" type="car" depart="28842.18">
        <route edges="-310 -286 -302 -323"/>
    </vehicle>
    <vehicle id="15.8" type="car" depart="28842.60">
        <route edges="-292 -288 -286 -303"/>
    </vehicle>
    <vehicle id="4.9" type="car" depart="28843.54">
        <route edges="-2801 -280 -307 -327 -281 -315 -321 -300 -2851 -285 -290 -298 -295"/>
    </vehicle>
    <vehicle id="2.6" type="car" depart="28843.90">
        <route edges="-312 -293 -297 -288 -286 -302 -323"/>
    </vehicle>
    <vehicle id="12.5" type="car" depart="28844.55">
        <route edges="-320 -3221 -322 -313 -283"/>
    </vehicle>
    <vehicle id="13.5" type="car" depart="28845.92">
        <route edges="-316 -313 -283"/>
    </vehicle>
    <vehicle id="5.5" type="car" depart="28845.92">
        <route edges="-308 -306"/>
    </vehicle>
    <vehicle id="7.2" type="car" depart="28846.15">
        <route edges="-319 -302 -323"/>
    </vehicle>
    <vehicle id="14.5" type="car" depart="28846.39">
        <route edges="-330 -328 -306"/>
    </vehicle>
    <vehicle id="16.10" type="car" depart="28846.87">
        <route edges="-310 -2851 -285 -290 -298 -295"/>
    </vehicle>
    <vehicle id="11.5" type="car" depart="28847.37">
        <route edges="-331 -297 -289"/>
    </vehicle>
    <vehicle id="15.9" type="car" depart="28847.93">
        <route edges="-292 -288 -286 -302 -3221 -322 -314"/>
    </vehicle>
    <vehicle id="4.10" type="car" depart="28848.38">
        <route edges="-2801 -280 -307 -329"/>
    </vehicle>
    <vehicle id="6.4" type="car" depart="28850.00">
        <route edges="-326 -307 -327 -281 -314"/>
    </vehicle>
    <vehicle id="2.7" type="car" depart="28851.22">
        <route edges="-312 -293 -299"/>
    </vehicle>
    <vehicle id="16.11" type="car" depart="28851.56">
        <route edges="-310 -286 -302 -323"/>
    </vehicle>
    <vehicle id="4.11" type="car" depart="28853.22">
        <route edges="-2801 -280 -307 -327 -281 -315 -321 -300 -2851 -285 -290 -299"/>
    </vehicle>
    <vehicle id="15.10" type="car" depart="28853.25">
        <route edges="-292 -290 -298 -295"/>
    </vehicle>
    <vehicle id="12.6" type="car" depart="28853.46">
        <route edges="-320 -3221 -322 -313 -284 -328 -304"/>
    </vehicle>
    <vehicle id="13.6" type="car" depart="28855.10">
        <route edges="-316 -313 -284 -328 -304"/>
    </vehicle>
    <vehicle id="5.6" type="car" depart="28855.10">
        <route edges="-308 -306"/>
    </vehicle>
    <vehicle id="14.6" type="car" depart="28855.67">
        <route edges="-330 -327 -283"/>
    </vehicle>
    <vehicle id="16.12" type="car" depart="28856.24">
        <route edges="-310 -2851 -285 -289"/>
    </vehicle>
    <vehicle id="11.6" type="car" depart="28856.84">
        <route edges="-331 -298 -295"/>
    </vehicle>
    <vehicle id="4.12" type="car" depart="28858.06">
        <route edges="-2801 -280 -307 -327 -281 -315 -321 -300 -287"/>
    </vehicle>
    <vehicle id="2.8" type="car" depart="28858.54">
        <route edges="-312 -293 -297 -288 -287"/>
    </vehicle>
    <vehicle id="15.11" type="car" depart="28858.58">
        <route edges="-292 -290 -299"/>
    </vehicle>
    <vehicle id="16.13" type="car" depart="28860.93">
        <route edges="-310 -286 -302 -323"/>
    </vehicle>
    <vehicle id="3.2" type="car" depart="28862.07">
        <route edges="-324 -295"/>
    </vehicle>
    <vehicle id="12.7" type="car" depart="28862.37">
        <route edges="-320 -3221 -322 -313 -284 -328 -306"/>
    </vehicle>
    <vehicle id="6.5" type="car" depart="28862.50">
        <route edges="-326 -304"/>
    </vehicle>
    <vehicle id="4.13" type="car" depart="28862.89">
        <route edges="-2801 -280 -307 -329"/>
    </vehicle>
    <vehicle id="15.12" type="car" depart="28863.90">
        <route edges="-292 -288 -287"/>
    </vehicle>
    <vehicle id="13.7" type="car" depart="28864.28">
        <route edges="-316 -313 -284 -328 -305"/>
    </vehicle>
    <vehicle id="5.7" type="car" depart="28864.28">
        <route edges="-308 -306"/>
    </vehicle>
    <vehicle id="10.2" type="car" depart="28864.28">
        <route edges="-318 -281 -315 -321 -300 -2851 -285 -290 -299"/>
    </vehicle>
    <vehicle id="9.1" type="car" depart="28864.29">
        <route edges="-317 -281 -315 -321 -300 -2851 -285 -290 -298 -295"/>
    </vehicle>
    <vehicle id="14.7" type="car" depart="28864.95">
        <route edges="-330 -328 -304"/>
    </vehicle>
    <vehicle id="16.14" type="car" depart="28865.62">
        <route edges="-310 -2851 -285 -290 -298 -295"/>
    </vehicle>
    <vehicle id="2.9" type="car" depart="28865.85">
        <route edges="-312 -293 -297 -288 -286 -302 -323"/>
    </vehicle>
    <vehicle id="11.7" type="car" depart="28866.31">
        <route edges="-331 -298 -295"/>
    </vehicle>
    <vehicle id="4.14" type="car" depart="28867.73">
        <route edges="-2801 -280 -307 -329"/>
    </vehicle>
    <vehicle id="15.13" type="car" depart="28869.23">
        <route edges="-292 -290 -298 -295"/>
    </vehicle>
    <vehicle id="7.3" type="car" depart="28869.23">
        <route edges="-319 -303"/>
    </vehicle>
    <vehicle id="16.15" type="car" depart="28870.31">
        <route edges="-310 -2851 -285 -290 -298 -296"/>
    </vehicle>
    <vehicle id="12.8" type="car" depart="28871.28">
        <route edges="-320 -3221 -322 -314"/>
    </vehicle>
    <vehicle id="4.15" type="car" depart="28872.57">
        <route edges="-2801 -280 -307 -327 -283"/>
    </vehicle>
    <vehicle id="2.10" type="car" depart="28873.17">
        <route edges="-312 -293 -299"/>
    </vehicle>
    <vehicle id="13.8" type="car" depart="28873.46">
        <route edges="-316 -313 -284 -328 -305"/>
    </vehicle>
    <vehicle id="5.8" type="car" depart="28873.46">
        <route edges="-308 -306"/>
    </vehicle>
    <vehicle id="14.8" type="car" depart="28874.22">
        <route edges="-330 -328 -305"/>
    </vehicle>
    <vehicle id="15.14" type="car" depart="28874.55">
        <route edges="-292 -288 -286 -302 -3221 -322 -313 -284 -328 -305"/>
    </vehicle>
    <vehicle id="16.16" type="car" depart="28874.99">
        <route edges="-310 -286 -302 -323"/>
    </vehicle>
    <vehicle id="6.6" type="car" depart="28875.00">
        <route edges="-326 -307 -327 -281 -315 -321 -300 -2851 -285 -290 -298 -295"/>
    </vehicle>
    <vehicle id="11.8" type="car" depart="28875.78">
        <route edges="-331 -298 -295"/>
    </vehicle>
    <vehicle id="4.16" type="car" depart="28877.41">
        <route edges="-2801 -280 -307 -327 -281 -315 -323"/>
    </vehicle>
    <vehicle id="16.17" type="car" depart="28879.68">
        <route edges="-310 -2851 -285 -289"/>
    </vehicle>
    <vehicle id="15.15" type="car" depart="28879.88">
        <route edges="-292 -288 -287"/>
    </vehicle>
    <vehicle id="12.9" type="car" depart="28880.19">
        <route edges="-320 -3221 -322 -313 -284 -328 -305"/>
    </vehicle>
    <vehicle id="2.11" type="car" depart="28880.49">
        <route edges="-312 -293 -297 -289"/>
    </vehicle>
    <vehicle id="4.17" type="car" depart="28882.25">
        <route edges="-2801 -280 -307 -327 -281 -315 -321 -300 -2851 -285 -290 -298 -295"/>
    </vehicle>
    <vehicle id="13.9" type="car" depart="28882.65">
        <route edges="-316 -313 -284 -329"/>
    </vehicle>
    <vehicle id="5.9" type="car" depart="28882.65">
        <route edges="-308 -307 -329"/>
    </vehicle>
    <vehicle id="14.9" type="car" depart="28883.50">
        <route edges="-330 -327 -281 -315 -321 -300 -2851 -285 -290 -298 -295"/>
    </vehicle>
    <vehicle id="16.18" type="car" depart="28884.37">
        <route edges="-310 -287"/>
    </vehicle>
    <vehicle id="15.16" type="car" depart="28885.20">
        <route edges="-292 -288 -286 -302 -323"/>
    </vehicle>
    <vehicle id="11.9" type="car" depart="28885.26">
        <route edges="-331 -298 -295"/>
    </vehicle>
    <vehicle id="4.18" type="car" depart="28887.08">
        <route edges="-2801 -280 -307 -327 -281 -315 -321 -300 -287"/>
    </vehicle>
    <vehicle id="6.7" type="car" depart="28887.50">
        <route edges="-326 -307 -329"/>
    </vehicle>
    <vehicle id="2.12" type="car" depart="28887.80">
        <route edges="-312 -293 -299"/>
    </vehicle>
    <vehicle id="16.19" type="car" depart="28889.05">
        <route edges="-310 -287"/>
    </vehicle>
    <vehicle id="12.10" type="car" depart="28889.10">
        <route edges="-320 -3221 -322 -313 -284 -329"/>
    </vehicle>
    <vehicle id="15.17" type="car" depart="28890.53">
        <route edges="-292 -288 -287"/>
    </vehicle>
    <vehicle id="13.10" type="car" depart="28891.83">
        <route edges="-316 -313 -284 -328 -304"/>
    </vehicle>
    <vehicle id="5.10" type="car" depart="28891.83">
        <route edges="-308 -304"/>
    </vehicle>
    <vehicle id="4.19" type="car" depart="28891.92">
        <route edges="-2801 -280 -307 -327 -281 -315 -321 -300 -2851 -285 -290 -298 -296"/>
    </vehicle>
    <vehicle id="7.4" type="car" depart="28892.30">
        <route edges="-319 -302 -3221 -322 -313 -284 -329"/>
    </vehicle>
    <vehicle id="14.10" type="car" depart="28892.78">
        <route edges="-330 -328 -305"/>
    </vehicle>
    <vehicle id="3.3" type="car" depart="28893.10">
        <route edges="-324 -293 -297 -289"/>
    </vehicle>
    <vehicle id="16.20" type="car" depart="28893.74">
        <route edges="-310 -286 -302 -323"/>
    </vehicle>
    <vehicle id="11.10" type="car" depart="28894.73">
        <route edges="-331 -298 -295"/>
    </vehicle>
    <vehicle id="2.13" type="car" depart="28895.12">
        <route edges="-312 -293 -297 -288 -286 -302 -323"/>
    </vehicle>
    <vehicle id="15.18" type="car" depart="28895.85">
        <route edges="-292 -290 -299"/>
    </vehicle>
    <vehicle id="10.3" type="car" depart="28896.43">
        <route edges="-318 -281 -315 -321 -300 -287"/>
    </vehicle>
    <vehicle id="4.20" type="car" depart="28896.76">
        <route edges="-2801 -280 -307 -327 -281 -315 -321 -300 -287"/>
    </vehicle>
    <vehicle id="12.11" type="car" depart="28898.01">
        <route edges="-320 -3221 -322 -313 -284 -328 -304"/>
    </vehicle>
    <vehicle id="16.21" type="car" depart="28898.43">
        <route edges="-310 -2851 -285 -289"/>
    </vehicle>
    <vehicle id="1.1" type="car" depart="28900.00">
        <route edges="-309 -296"/>
    </vehicle>
    <vehicle id="6.8" type="car" depart="28900.00">
        <route edges="-326 -305"/>
    </vehicle>
    <vehicle id="13.11" type="car" depart="28901.01">
        <route edges="-316 -313 -284 -328 -305"/>
    </vehicle>
    <vehicle id="5.11" type="car" depart="28901.01">
        <route edges="-308 -307 -329"/>
    </vehicle>
    <vehicle id="15.19" type="car" depart="28901.18">
        <route edges="-292 -288 -286 -302 -3221 -322 -313 -284 -328 -304"/>
    </vehicle>
    <vehicle id="4.21" type="car" depart="28901.60">
        <route edges="-2801 -280 -307 -327 -281 -315 -321 -300 -2851 -285 -290 -298 -295"/>
    </vehicle>
    <vehicle id="14.11" type="car" depart="28902.06">
        <route edges="-330 -328 -306"/>
    </vehicle>
    <vehicle id="2.14" type="car" depart="28902.44">
        <route edges="-312 -293 -297 -288 -286 -302 -3221 -322 -313 -284 -328 -305"/>
    </vehicle>
    <vehicle id="16.22" type="car" depart="28903.11">
        <route edges="-310 -286 -302 -323"/>
    </vehicle>
    <vehicle id="11.11" type="car" depart="28904.20">
        <route edges="-331 -297 -288 -286 -302 -323"/>
    </vehicle>
    <vehicle id="4.22" type="car" depart="28906.44">
        <route edges="-2801 -280 -307 -327 -281 -315 -321 -300 -2851 -285 -290 -298 -295"/>
    </vehicle>
    <vehicle id="15.20" type="car" depart="28906.50">
        <route edges="-292 -290 -298 -295"/>
    </vehicle>
    <vehicle id="12.12" type="car" depart="28906.92">
        <route edges="-320 -3221 -322 -313 -284 -328 -304"/>
    </vehicle>
    <vehicle id="16.23" type="car" depart="28907.80">
        <route edges="-310 -286 -303"/>
    </vehicle>
    <vehicle id="2.15" type="car" depart="28909.76">
        <route edges="-312 -293 -297 -288 -286 -302 -323"/>
    </vehicle>
    <vehicle id="13.12" type="car" depart="28910.20">
        <route edges="-316 -313 -284 -328 -306"/>
    </vehicle>
    <vehicle id="5.12" type="car" depart="28910.20">
        <route edges="-308 -307 -327 -281 -315 -321 -300 -2851 -285 -289"/>
    </vehicle>
    <vehicle id="4.23" type="car" depart="28911.27">
        <route edges="-2801 -280 -307 -329"/>
    </vehicle>
    <vehicle id="14.12" type="car" depart="28911.34">
        <route edges="-330 -328 -304"/>
    </vehicle>
    <vehicle id="15.21" type="car" depart="28911.83">
        <route edges="-292 -290 -298 -295"/>
    </vehicle>
    <vehicle id="16.24" type="car" depart="28912.49">
        <route edges="-310 -286 -302 -323"/>
    </vehicle>
    <vehicle id="6.9" type="car" depart="28912.50">
        <route edges="-326 -305"/>
    </vehicle>
    <vehicle id="11.12" type="car" depart="28913.68">
        <route edges="-331 -297 -289"/>
    </vehicle>
    <vehicle id="7.5" type="car" depart="28915.38">
        <route edges="-319 -300 -287"/>
    </vehicle>
    <vehicle id="12.13" type="car" depart="28915.83">
        <route edges="-320 -3221 -322 -313 -284 -329"/>
    </vehicle>
    <vehicle id="4.24" type="car" depart="28916.11">
        <route edges="-2801 -280 -307 -327 -281 -315 -321 -300 -287"/>
    </vehicle>
    <vehicle id="2.16" type="car" depart="28917.07">
        <route edges="-312 -293 -297 -288 -286 -302 -3221 -322 -313 -284 -328 -305"/>
    </vehicle>
    <vehicle id="15.22" type="car" depart="28917.15">
        <route edges="-292 -288 -286 -302 -3221 -322 -313 -284 -328 -306"/>
    </vehicle>
    <vehicle id="16.25" type="car" depart="28917.18">
        <route edges="-310 -286 -301"/>
    </vehicle>
    <vehicle id="13.13" type="car" depart="28919.38">
        <route edges="-316 -313 -284 -328 -304"/>
    </vehicle>
    <vehicle id="5.13" type="car" depart="28919.38">
        <route edges="-308 -307 -327 -281 -315 -321 -300 -2851 -285 -290 -298 -295"/>
    </vehicle>
    <vehicle id="14.13" type="car" depart="28920.61">
        <route edges="-330 -327 -281 -315 -321 -300 -2851 -285 -289"/>
    </vehicle>
    <vehicle id="4.25" type="car" depart="28920.95">
        <route edges="-2801 -280 -307 -327 -281 -315 -321 -300 -2851 -285 -290 -298 -295"/>
    </vehicle>
    <vehicle id="16.26" type="car" depart="28921.86">
        <route edges="-310 -286 -302 -3221 -322 -313 -284 -328 -305"/>
    </vehicle>
    <vehicle id="15.23" type="car" depart="28922.48">
        <route edges="-292 -290 -298 -295"/>
    </vehicle>
    <vehicle id="11.13" type="car" depart="28923.15">
        <route edges="-331 -298 -295"/>
    </vehicle>
    <vehicle id="3.4" type="car" depart="28924.14">
        <route edges="-324 -293 -297 -288 -286 -302 -3221 -322 -313 -284 -328 -306"/>
    </vehicle>
    <vehicle id="2.17" type="car" depart="28924.39">
        <route edges="-312 -293 -297 -288 -286 -302 -3221 -322 -313 -284 -328 -304"/>
    </vehicle>
    <vehicle id="12.14" type="car" depart="28924.74">
        <route edges="-320 -3221 -322 -313 -284 -328 -306"/>
    </vehicle>
    <vehicle id="6.10" type="car" depart="28925.00">
        <route edges="-326 -305"/>
    </vehicle>
    <vehicle id="4.26" type="car" depart="28925.79">
        <route edges="-2801 -280 -306"/>
    </vehicle>
    <vehicle id="16.27" type="car" depart="28926.55">
        <route edges="-310 -286 -302 -323"/>
    </vehicle>
    <vehicle id="15.24" type="car" depart="28927.80">
        <route edges="-292 -288 -286 -302 -323"/>
    </vehicle>
    <vehicle id="13.14" type="car" depart="28928.56">
        <route edges="-316 -313 -284 -328 -304"/>
    </vehicle>
    <vehicle id="5.14" type="car" depart="28928.56">
        <route edges="-308 -307 -327 -281 -315 -321 -300 -2851 -285 -289"/>
    </vehicle>
    <vehicle id="10.4" type="car" depart="28928.57">
        <route edges="-318 -282"/>
    </vehicle>
    <vehicle id="9.2" type="car" depart="28928.57">
        <route edges="-317 -281 -315 -321 -300 -2851 -285 -290 -298 -295"/>
    </vehicle>
    <vehicle id="8.1" type="car" depart="28928.57">
        <route edges="-325 -302 -323"/>
    </vehicle>
    <vehicle id="14.14" type="car" depart="28929.89">
        <route edges="-330 -327 -281 -315 -321 -300 -2851 -285 -289"/>
    </vehicle>
    <vehicle id="4.27" type="car" depart="28930.63">
        <route edges="-2801 -280 -307 -329"/>
    </vehicle>
    <vehicle id="16.28" type="car" depart="28931.24">
        <route edges="-310 -2851 -285 -289"/>
    </vehicle>
    <vehicle id="2.18" type="car" depart="28931.71">
        <route edges="-312 -293 -297 -288 -286 -302 -323"/>
    </vehicle>
    <vehicle id="11.14" type="car" depart="28932.62">
        <route edges="-331 -297 -288 -286 -302 -323"/>
    </vehicle>
    <vehicle id="15.25" type="car" depart="28933.13">
        <route edges="-292 -290 -298 -295"/>
    </vehicle>
    <vehicle id="12.15" type="car" depart="28933.65">
        <route edges="-320 -3221 -322 -313 -283"/>
    </vehicle>
    <vehicle id="4.28" type="car" depart="28935.46">
        <route edges="-2801 -280 -307 -327 -281 -315 -321 -300 -2851 -285 -289"/>
    </vehicle>
    <vehicle id="16.29" type="car" depart="28935.92">
        <route edges="-310 -287"/>
    </vehicle>
    <vehicle id="6.11" type="car" depart="28937.50">
        <route edges="-326 -305"/>
    </vehicle>
    <vehicle id="13.15" type="car" depart="28937.75">
        <route edges="-316 -313 -284 -328 -304"/>
    </vehicle>
    <vehicle id="5.15" type="car" depart="28937.75">
        <route edges="-308 -307 -327 -281 -315 -321 -300 -2851 -285 -289"/>
    </vehicle>
    <vehicle id="15.26" type="car" depart="28938.45">
        <route edges="-292 -288 -287"/>
    </vehicle>
    <vehicle id="7.6" type="car" depart="28938.46">
        <route edges="-319 -300 -2851 -285 -290 -298 -295"/>
    </vehicle>
    <vehicle id="2.19" type="car" depart="28939.02">
        <route edges="-312 -293 -299"/>
    </vehicle>
    <vehicle id="14.15" type="car" depart="28939.17">
        <route edges="-330 -327 -281 -315 -321 -300 -2851 -285 -290 -298 -295"/>
    </vehicle>
    <vehicle id="4.29" type="car" depart="28940.30">
        <route edges="-2801 -280 -307 -327 -281 -315 -321 -300 -2851 -285 -289"/>
    </vehicle>
    <vehicle id="16.30" type="car" depart="28940.61">
        <route edges="-310 -286 -302 -323"/>
    </vehicle>
    <vehicle id="11.15" type="car" depart="28942.10">
        <route edges="-331 -297 -288 -286 -302 -323"/>
    </vehicle>
    <vehicle id="12.16" type="car" depart="28942.56">
        <route edges="-320 -3221 -322 -313 -284 -328 -304"/>
    </vehicle>
    <vehicle id="15.27" type="car" depart="28943.78">
        <route edges="-292 -288 -286 -302 -3221 -322 -313 -284 -329"/>
    </vehicle>
    <vehicle id="4.30" type="car" depart="28945.14">
        <route edges="-2801 -280 -307 -327 -281 -315 -321 -300 -2851 -285 -289"/>
    </vehicle>
    <vehicle id="16.31" type="car" depart="28945.30">
        <route edges="-310 -286 -302 -323"/>
    </vehicle>
    <vehicle id="2.20" type="car" depart="28946.34">
        <route edges="-312 -296"/>
    </vehicle>
    <vehicle id="13.16" type="car" depart="28946.93">
        <route edges="-316 -313 -284 -328 -305"/>
    </vehicle>
    <vehicle id="5.16" type="car" depart="28946.93">
        <route edges="-308 -307 -327 -281 -314"/>
    </vehicle>
    <vehicle id="14.16" type="car" depart="28948.45">
        <route edges="-330 -327 -281 -315 -321 -300 -2851 -285 -290 -298 -295"/>
    </vehicle>
    <vehicle id="15.28" type="car" depart="28949.10">
        <route edges="-292 -290 -298 -295"/>
    </vehicle>
    <vehicle id="4.31" type="car" depart="28949.98">
        <route edges="-2801 -280 -307 -327 -281 -315 -321 -300 -287"/>
    </vehicle>