<additional>
    <edgeData id="1" file="EdgeData.xml"/>
</additional>