<?xml version="1.0" encoding="UTF-8"?>

<!-- generated on 04/19/21 11:45:00 by Eclipse SUMO netedit Version 1.8.0
<configuration xmlns:xsi="http://www.w3.org/2001/XMLSchema-instance" xsi:noNamespaceSchemaLocation="http://sumo.dlr.de/xsd/netconvertConfiguration.xsd">

    <input>
        <sumo-net-file value="C:\Users\admin\Dropbox%20(ORNL)\2_projects\1_2_sumo\1_6_dSpace\coordMerge_v1.net.xml"/>
    </input>

    <output>
        <output-file value="C:\Users\admin\Dropbox%20(ORNL)\2_projects\1_2_sumo\1_6_dSpace\coordMerge_v1.net.xml"/>
    </output>

    <processing>
        <geometry.min-radius.fix.railways value="false"/>
        <geometry.max-grade.fix value="false"/>
        <offset.disable-normalization value="true"/>
        <lefthand value="false"/>
    </processing>

    <junctions>
        <no-turnarounds value="true"/>
        <junctions.corner-detail value="5"/>
        <junctions.limit-turn-speed value="5.5"/>
        <rectangular-lane-cut value="false"/>
    </junctions>

    <pedestrian>
        <walkingareas value="false"/>
    </pedestrian>

    <netedit>
        <route-files value="C:\Users\admin\Dropbox%20(ORNL)\2_projects\1_2_sumo\1_6_dSpace\coordMerge_v1.rou.xml"/>
    </netedit>

    <report>
        <aggregate-warnings value="5"/>
    </report>

</configuration>
-->

<routes xmlns:xsi="http://www.w3.org/2001/XMLSchema-instance" xsi:noNamespaceSchemaLocation="http://sumo.dlr.de/xsd/routes_file.xsd">
    <vType id="CAV_LDV"/>
    <route edges="1 3 4 5" color="yellow" id="route_0"/>
    <route edges="2 3 4 5" color="yellow" id="route_1"/>
    <flow id="flow_0" type="CAV_LDV" begin="0.00" departSpeed="desired" color="128,128,0" route="route_0" end="300.00" vehsPerHour="1000.00"/>
	<flow id="flow_1" type="CAV_LDV" begin="0.00" departSpeed="desired" route="route_1" end="300.00" vehsPerHour="800.00"/>
</routes>
