<?xml version="1.0" encoding="UTF-8"?>

<!-- generated on 04/21/20 15:18:53 by Eclipse SUMO duarouter Version 1.3.1
<configuration xmlns:xsi="http://www.w3.org/2001/XMLSchema-instance" xsi:noNamespaceSchemaLocation="http://sumo.dlr.de/xsd/duarouterConfiguration.xsd">

    <input>
        <net-file value="C:\Projects\HPC-Regional_Mobility\MPC\SFR_Network\ShallowfordRd_RL.net.xml"/>
        <route-files value="C:\Projects\HPC-Regional_Mobility\MPC\SFR_Network\ShallowfordRd_RL_output_randomTripPy.xml"/>
    </input>

    <output>
        <output-file value="ShallowfordRd_RL_output_duarouter.xml"/>
        <alternatives-output value="ShallowfordRd_RL_output_duarouter.alt.xml"/>
    </output>

    <time>
        <begin value="0"/>
        <end value="36000.0"/>
    </time>

    <report>
        <no-warnings value="true"/>
        <ignore-errors value="true"/>
        <no-step-log value="true"/>
    </report>

</configuration>
-->

<routes xmlns:xsi="http://www.w3.org/2001/XMLSchema-instance" xsi:noNamespaceSchemaLocation="http://sumo.dlr.de/xsd/routes_file.xsd">
    <vehicle id="0" depart="0.00">
        <route edges="15912 15913 15914 17275 17276 16480 16951 1650 -11375"/>
    </vehicle>
    <vehicle id="1" depart="1.00">
        <route edges="-14393 -14392 -14392.168 -1650"/>
    </vehicle>
    <vehicle id="2" depart="2.00">
        <route edges="-905 16480 16951 1650 14392 14393"/>
    </vehicle>
    <vehicle id="3" depart="3.00">
        <route edges="-17235 17235 17275"/>
    </vehicle>
    <vehicle id="8" depart="8.00">
        <route edges="-906 -905 -17276 -17275 -17235 -17234 -17315 -17317"/>
    </vehicle>
    <vehicle id="10" depart="10.00">
        <route edges="-17276 -17275 -17235 -17234"/>
    </vehicle>
    <vehicle id="13" depart="13.00">
        <route edges="17316 17317 17315 17234 17235 17275 17276 16480 16951 1650 -11375 11375 11375.333 -1650"/>
    </vehicle>
    <vehicle id="15" depart="15.00">
        <route edges="15930 17354 15912 15913 15914 17275 17276 16480 16951 1650 -11375 11375 11375.333 -1650 -16951 -16480 -17276"/>
    </vehicle>
    <vehicle id="16" depart="16.00">
        <route edges="15929 15930 17354 15912 15913 15914 -17235 -17234 -17315 -17317 -17316"/>
    </vehicle>
    <vehicle id="20" depart="20.00">
        <route edges="17354 15912 15913 15914 17275 17276 16480 16951 1650 -11375"/>
    </vehicle>
    <vehicle id="23" depart="23.00">
        <route edges="-17319 -17332 -17331"/>
    </vehicle>
    <vehicle id="24" depart="24.00">
        <route edges="-906 -905 -17276 -17275 -17235 17235"/>
    </vehicle>
    <vehicle id="28" depart="28.00">
        <route edges="-9904 17234 17235 79"/>
    </vehicle>
    <vehicle id="30" depart="30.00">
        <route edges="-928 -908 -907 -906 -905 -17276 -17275 -17235 -17234 -17315 -17317 -17316 -17318 -17319"/>
    </vehicle>
    <vehicle id="32" depart="32.00">
        <route edges="-928 -908 -907 -906 -905 -17276 -17275 -17235 -17234 -17315 -17317"/>
    </vehicle>
    <vehicle id="33" depart="33.00">
        <route edges="17317 17315 17234 17235 17275 17276 16480 16951 1650 -11375 11375 11375.333 -1650 -16951 -16480 -17276 -17275 -17235 -17234 -17315 -17317 -17316 -17318 -17319 -17332"/>
    </vehicle>
    <vehicle id="38" depart="38.00">
        <route edges="-906 -905 -17276 -17275 -17235 -17234 -17315 -17317 -17316 -17318 -17319 -17332 -17331"/>
    </vehicle>
    <vehicle id="40" depart="40.00">
        <route edges="17234 17235 17275 17276 16480 16951 1650 -11375 11375 11375.333 -1650 -16951 -16480 -17276 -17275 -17235 -17234 -17315 -17317 -17316 -17318 -17319"/>
    </vehicle>
    <vehicle id="41" depart="41.00">
        <route edges="15914 -17235 -17234 -17315 -17317 -17316 -17318 -17319 -17332"/>
    </vehicle>
    <vehicle id="44" depart="44.00">
        <route edges="17318 17316 17317 17315 17234 17235 17275 17276 16480 16951 1650 -11375 11375 11375.333 -1650 -16951 -16480 -17276 -17275 -17235 -17234 -17315 -17317 -17316 -17318"/>
    </vehicle>
    <vehicle id="46" depart="46.00">
        <route edges="17276 16480 16951 1650 14392 14393"/>
    </vehicle>
    <vehicle id="47" depart="47.00">
        <route edges="-908 -907 -906 -905 16480 16951 1650 -11375 11375 11375.333 -1650 -16951 -16480"/>
    </vehicle>
    <vehicle id="49" depart="49.00">
        <route edges="31312 31313 31291 17234 17235 17275 17276 16480 16951 1650 -11375 11375 11375.333 -1650 -16951 -16480 -17276 -17275"/>
    </vehicle>
    <vehicle id="52" depart="52.00">
        <route edges="31312 31313 31291 -17315 -17317 -17316 -17318 -17319 -17332 -17331"/>
    </vehicle>
    <vehicle id="53" depart="53.00">
        <route edges="17234 17235 17275 17276 16480 16951 1650 14392 14393"/>
    </vehicle>
    <vehicle id="57" depart="57.00">
        <route edges="31291 17234 17235 17275 17276 16480 16951 1650 14392"/>
    </vehicle>
    <vehicle id="58" depart="58.00">
        <route edges="17318 17316 17317 17315 -31291"/>
    </vehicle>
    <vehicle id="59" depart="59.00">
        <route edges="17316 17317 17315 17234 17235 79 428"/>
    </vehicle>
    <vehicle id="60" depart="60.00">
        <route edges="17315 17234 17235 17275 17276 16480 16951 1650 -11375 11375 11375.333 -1650"/>
    </vehicle>
    <vehicle id="61" depart="61.00">
        <route edges="17234 17235 17275 17276 16480 16951 1650 -11375 11375 11375.333 -1650 -16951 -16480 -17276"/>
    </vehicle>
    <vehicle id="67" depart="67.00">
        <route edges="-906 -905 -17276 -17275 -17235 17235 17275 17276 -16037 -16037.238 -16229"/>
    </vehicle>
    <vehicle id="68" depart="68.00">
        <route edges="-17275 -17235 17235 17275 17276"/>
    </vehicle>
    <vehicle id="70" depart="70.00">
        <route edges="17317 17315 17234 17235 17275 17276 16480 16951 1650"/>
    </vehicle>
    <vehicle id="71" depart="71.00">
        <route edges="17275 17276 16480 16951"/>
    </vehicle>
    <vehicle id="76" depart="76.00">
        <route edges="-16951 -16480 -17276 -17275 -17235 17235 17275 17276 16480 16951 1650 1527"/>
    </vehicle>
    <vehicle id="77" depart="77.00">
        <route edges="15929 15930 17354 15912 15913 15914 17275 17276 16480 16951 1650 14392"/>
    </vehicle>
    <vehicle id="79" depart="79.00">
        <route edges="-1650 -16951 -16480 -17276 -17275 -17235 17235 17275 17276 16480"/>
    </vehicle>
    <vehicle id="80" depart="80.00">
        <route edges="-907 -906 -905"/>
    </vehicle>
    <vehicle id="86" depart="86.00">
        <route edges="-14392 -14392.168 -1650 -16951 -16480 -17276 -17275 -17235 -17234 -31291 -31313"/>
    </vehicle>
    <vehicle id="87" depart="87.00">
        <route edges="11375.333 -1650"/>
    </vehicle>
    <vehicle id="88" depart="88.00">
        <route edges="17235 17275 17276 16480 16951 1650 -11375 11375 11375.333 -1650 -16951 -16480 -17276 -17275 -17235 -17234 -17315"/>
    </vehicle>
    <vehicle id="89" depart="89.00">
        <route edges="17317 17315 -31291"/>
    </vehicle>
    <vehicle id="90" depart="90.00">
        <route edges="-1650 -16951 -16480 -17276 -17275 -17235"/>
    </vehicle>
    <vehicle id="93" depart="93.00">
        <route edges="-16480 -17276 -17275 -17235 -17234 -17315 -17317 -17316 -17318"/>
    </vehicle>
    <vehicle id="95" depart="95.00">
        <route edges="-16951 -16480 -17276 -17275"/>
    </vehicle>
    <vehicle id="99" depart="99.00">
        <route edges="-14393 -14392 -14392.168 1527"/>
    </vehicle>
    <vehicle id="101" depart="101.00">
        <route edges="17317 17315 17234 17235 17275 17276 16480 16951 1650 14392"/>
    </vehicle>
    <vehicle id="102" depart="102.00">
        <route edges="-17275 -17235 -17234 -31291 -31313 -31312"/>
    </vehicle>
    <vehicle id="104" depart="104.00">
        <route edges="17316 17317 17315 17234 17235 17275 17276"/>
    </vehicle>
    <vehicle id="108" depart="108.00">
        <route edges="-14393 -14392 -14392.168 -1650 -16951 -16480 -17276 -17275 -17235"/>
    </vehicle>
    <vehicle id="112" depart="112.00">
        <route edges="17331 17332 17319 17318 17316 17317 17315 17234 17235 17275 17276"/>
    </vehicle>
    <vehicle id="115" depart="115.00">
        <route edges="-17276 -17275 -17235 17235"/>
    </vehicle>
    <vehicle id="117" depart="117.00">
        <route edges="-929 -928 -908 -907 -906 -905 -17276 -17275 -17235 -17234 -17315 -17317 -17316 -17318 -17319 -17332 -17331"/>
    </vehicle>
    <vehicle id="119" depart="119.00">
        <route edges="-16480 -17276 -17275 -17235"/>
    </vehicle>
    <vehicle id="121" depart="121.00">
        <route edges="15914 17275 17276 16480 16951 1650 -11375 11375 11375.333"/>
    </vehicle>
    <vehicle id="125" depart="125.00">
        <route edges="15914 17275 17276 16480 16951 1650 1527"/>
    </vehicle>
    <vehicle id="126" depart="126.00">
        <route edges="17318 17316 17317 17315 17234 17235 17275 17276 16480 16951 1650 -11375 11375 11375.333 -1650 -16951 -16480 -17276 -17275 -17235 -17234 -17315 -17317 -17316 -17318 -17319 -17332 -17331"/>
    </vehicle>
    <vehicle id="128" depart="128.00">
        <route edges="-908 -907 -906 -905 -17276 -17275 79"/>
    </vehicle>
    <vehicle id="133" depart="133.00">
        <route edges="17332 17319 17318 17316 17317 17315 17234 17235 17275 17276 16480 16951 1650 14392"/>
    </vehicle>
    <vehicle id="137" depart="137.00">
        <route edges="1650 14392"/>
    </vehicle>
    <vehicle id="139" depart="139.00">
        <route edges="15912 15913 15914 17275 17276 16480 16951 1650 -11375 11375 11375.333 -1650 -16951"/>
    </vehicle>
    <vehicle id="140" depart="140.00">
        <route edges="15912 15913 15914 -17235 17235 79"/>
    </vehicle>
    <vehicle id="141" depart="141.00">
        <route edges="-928 -908 -907 -906 -905 16480 16951 1650 -11375"/>
    </vehicle>
    <vehicle id="142" depart="142.00">
        <route edges="17316 17317 17315 17234 17235 17275 17276 -16037 -16037.238 -16229 -16228"/>
    </vehicle>
    <vehicle id="143" depart="143.00">
        <route edges="17318 17316 17317 17315 17234 17235 17275 17276 16480 16951 1650 14392"/>
    </vehicle>
    <vehicle id="146" depart="146.00">
        <route edges="-907 -906 -905 -17276 -17275 -17235 -17234 -17315 -17317 -17316 -17318 -17319"/>
    </vehicle>
    <vehicle id="147" depart="147.00">
        <route edges="79 428"/>
    </vehicle>
    <vehicle id="151" depart="151.00">
        <route edges="31291 17234 17235 17275 17276 16480 16951 1650 -11375 11375 11375.333 -1650 -16951 -16480"/>
    </vehicle>
    <vehicle id="154" depart="154.00">
        <route edges="17276 16480 16951 1650 -11375 11375 11375.333 -1650 -16951 -16480 -17276 -17275 -17235 -17234 -17315 -17317 -17316 -17318"/>
    </vehicle>
    <vehicle id="155" depart="155.00">
        <route edges="16951 1650"/>
    </vehicle>
    <vehicle id="157" depart="157.00">
        <route edges="17315 17234 17235 17275 17276 16480 16951 1650 -11375"/>
    </vehicle>
    <vehicle id="158" depart="158.00">
        <route edges="31313 31291 17234 17235 17275 17276 16480 16951 1650 1527"/>
    </vehicle>
    <vehicle id="161" depart="161.00">
        <route edges="17234 17235 17275 17276 16480 16951 1650 -11375 11375 11375.333 -1650"/>
    </vehicle>
    <vehicle id="163" depart="163.00">
        <route edges="17319 17318 17316 17317 17315 17234 17235 17275 17276 16480 16951"/>
    </vehicle>
    <vehicle id="165" depart="165.00">
        <route edges="15929 15930 17354 15912 15913 15914 -17235 -17234 -17315 -17317 -17316 -17318"/>
    </vehicle>
    <vehicle id="167" depart="167.00">
        <route edges="-928 -908 -907 -906 -905 -17276 -17275 -17235 -17234 -17315 -17317 -17316"/>
    </vehicle>
    <vehicle id="168" depart="168.00">
        <route edges="-14393 -14392 -14392.168 -1650 -16951 -16480 -17276 -17275 -17235 -17234 -31291 -31313"/>
    </vehicle>
    <vehicle id="169" depart="169.00">
        <route edges="15929 15930 17354 15912 15913 15914 -17235 -17234"/>
    </vehicle>
    <vehicle id="171" depart="171.00">
        <route edges="17354 15912 15913 15914 -17235 -17234 -17315 -17317 -17316 -17318 -17319 -17332"/>
    </vehicle>
    <vehicle id="174" depart="174.00">
        <route edges="11375 11375.333 -1650 -16951 -16480 -16037"/>
    </vehicle>
    <vehicle id="175" depart="175.00">
        <route edges="-908 -907 -906 -905 -17276 -17275 79 428"/>
    </vehicle>
    <vehicle id="176" depart="176.00">
        <route edges="-908 -907 -906 -905 -17276"/>
    </vehicle>
    <vehicle id="177" depart="177.00">
        <route edges="-14393 -14392 -14392.168 -1650 -16951 -16480 -16037 -16037.238 -16229 -16228"/>
    </vehicle>
    <vehicle id="178" depart="178.00">
        <route edges="-908 -907 -906 -905 -17276 -17275 -17235 17235 17275 17276 -16037 -16037.238 -16229"/>
    </vehicle>
    <vehicle id="180" depart="180.00">
        <route edges="-14393 -14392 -14392.168 -1650 -16951 -16480 -17276 -17275 -17235 17235 17275 17276 16480 16951 1650"/>
    </vehicle>
    <vehicle id="182" depart="182.00">
        <route edges="16480 16951 1650 -11375 11375 11375.333 -1650 -16951 -16480 -16037 -16037.238"/>
    </vehicle>
    <vehicle id="186" depart="186.00">
        <route edges="16480 16951 1650 -11375 11375 11375.333 -1650 -16951 -16480 -17276 -17275 -17235 -17234 -17315 -17317 -17316 -17318 -17319 -17332"/>
    </vehicle>
    <vehicle id="187" depart="187.00">
        <route edges="31291 17234 17235 17275 17276 16480 16951 1650 -11375 11375 11375.333 -1650 -16951 -16480 -17276 -17275 -17235 -17234 -31291"/>
    </vehicle>
    <vehicle id="188" depart="188.00">
        <route edges="-16480 -17276 -17275 -17235 17235 17275 17276 16480 16951 1650 14392 14393"/>
    </vehicle>
    <vehicle id="189" depart="189.00">
        <route edges="31312 31313 31291 17234 17235 17275 17276 16480 16951 1650 -11375 11375 11375.333 -1650 -16951 -16480"/>
    </vehicle>
    <vehicle id="191" depart="191.00">
        <route edges="17315 17234 17235 17275 17276 16480 16951 1650 -11375 11375 11375.333"/>
    </vehicle>
    <vehicle id="192" depart="192.00">
        <route edges="17234 17235 17275 17276 16480 16951 1650 -11375 11375 11375.333 -1650 -16951 -16480 -17276 -17275 -17235"/>
    </vehicle>
    <vehicle id="194" depart="194.00">
        <route edges="-14392 -14392.168 -1650 -16951 -16480 -17276"/>
    </vehicle>
    <vehicle id="196" depart="196.00">
        <route edges="-905 -17276 -17275 -17235 17235 17275 17276 -16037 -16037.238 -16229"/>
    </vehicle>
    <vehicle id="197" depart="197.00">
        <route edges="-906 -905 16480"/>
    </vehicle>
    <vehicle id="198" depart="198.00">
        <route edges="17332 17319 17318 17316 17317 17315 17234 17235 17275 17276 16480 16951 1650 -11375 11375 11375.333 -1650 -16951 -16480"/>
    </vehicle>
    <vehicle id="199" depart="199.00">
        <route edges="31291 17234 17235 17275 17276 16480 16951 1650 -11375 11375 11375.333 -1650 -16951 -16480"/>
    </vehicle>
    <vehicle id="200" depart="200.00">
        <route edges="31313 31291 17234 17235 79 428"/>
    </vehicle>
    <vehicle id="202" depart="202.00">
        <route edges="16951 1650 -11375 11375 11375.333 -1650 -16951 -16480 -17276 -17275 -17235 -17234 -17315 -17317"/>
    </vehicle>
    <vehicle id="203" depart="203.00">
        <route edges="-9904 17234 17235 17275 17276 16480 16951 1650 -11375 11375 11375.333 -1650 -16951 -16480 -17276 -17275 -17235 -17234 9904"/>
    </vehicle>
    <vehicle id="204" depart="204.00">
        <route edges="17275 17276 16480 16951 1650 -11375"/>
    </vehicle>
    <vehicle id="205" depart="205.00">
        <route edges="-906 -905 16480 16951 1650"/>
    </vehicle>
    <vehicle id="207" depart="207.00">
        <route edges="15913 15914 17275 17276 16480 16951 1650 14392 14393"/>
    </vehicle>
    <vehicle id="208" depart="208.00">
        <route edges="-929 -928 -908 -907 -906 -905 -17276 -17275 -17235 17235"/>
    </vehicle>
    <vehicle id="209" depart="209.00">
        <route edges="15913 15914 -17235 17235 79 428"/>
    </vehicle>
    <vehicle id="211" depart="211.00">
        <route edges="17317 17315 17234 17235 17275 17276 16480 16951 1650 -11375 11375 11375.333 -1650 -16951 -16480 -17276 -17275 -17235 -17234 -17315"/>
    </vehicle>
    <vehicle id="212" depart="212.00">
        <route edges="17235 17275 17276 16480 16951 1650 -11375 11375 11375.333 -1650 -16951 -16480 -17276 -17275 -17235 -17234 -17315 -17317 -17316 -17318 -17319 -17332 -17331"/>
    </vehicle>
    <vehicle id="213" depart="213.00">
        <route edges="-905 16480 16951 1650 14392 14393"/>
    </vehicle>
    <vehicle id="214" depart="214.00">
        <route edges="-905 16480 16951 1650 14392"/>
    </vehicle>
    <vehicle id="215" depart="215.00">
        <route edges="17319 17318 17316 17317 17315 17234 17235 17275 17276 16480 16951 1650 -11375 11375 11375.333 -1650 -16951 -16480 -17276 -17275"/>
    </vehicle>
    <vehicle id="216" depart="216.00">
        <route edges="-17235 17235 17275 17276 16480 16951 1650 -11375"/>
    </vehicle>
    <vehicle id="217" depart="217.00">
        <route edges="-17317 -17316 -17318"/>
    </vehicle>
    <vehicle id="218" depart="218.00">
        <route edges="-908 -907 -906 -905 16480 16951 1650 -11375 11375 11375.333 -1650"/>
    </vehicle>
    <vehicle id="220" depart="220.00">
        <route edges="16951 1650 -11375 11375 11375.333 -1650 -16951 -16480 -17276 -17275 -17235 -17234 -17315 -17317 -17316 -17318 -17319 -17332 -17331"/>
    </vehicle>
    <vehicle id="223" depart="223.00">
        <route edges="-908 -907 -906 -905 -17276 -17275 -17235 -17234 9904"/>
    </vehicle>
    <vehicle id="224" depart="224.00">
        <route edges="-929 -928 -908 -907 -906 -905 -17276 -17275 -17235 17235"/>
    </vehicle>
    <vehicle id="225" depart="225.00">
        <route edges="17317 17315 17234 17235 17275 17276 16480 16951"/>
    </vehicle>
    <vehicle id="226" depart="226.00">
        <route edges="-16951"/>
    </vehicle>
    <vehicle id="227" depart="227.00">
        <route edges="-906 -905 -17276 -17275 -17235 -17234 9904"/>
    </vehicle>
    <vehicle id="228" depart="228.00">
        <route edges="31291 -17315 -17317"/>
    </vehicle>
    <vehicle id="231" depart="231.00">
        <route edges="15912 15913 15914 17275 17276 16480 16951 1650 14392"/>
    </vehicle>
    <vehicle id="235" depart="235.00">
        <route edges="15913"/>
    </vehicle>
    <vehicle id="236" depart="236.00">
        <route edges="-929 -928 -908 -907 -906 -905 -17276 -17275 -17235 -17234 -17315 -17317 -17316 -17318 -17319 -17332 -17331"/>
    </vehicle>
    <vehicle id="238" depart="238.00">
        <route edges="31313 31291 9904"/>
    </vehicle>
    <vehicle id="239" depart="239.00">
        <route edges="-908 -907 -906 -905 -17276 -17275 -17235"/>
    </vehicle>
    <vehicle id="242" depart="242.00">
        <route edges="-17275 -17235 17235 17275 17276 16480 16951 1650 1527"/>
    </vehicle>
    <vehicle id="244" depart="244.00">
        <route edges="16480 16951 1650 -11375 11375 11375.333 -1650 -16951 -16480 -17276 -17275 -17235 -17234 -17315 -17317 -17316 -17318"/>
    </vehicle>
    <vehicle id="245" depart="245.00">
        <route edges="-908 -907 -906 -905 16480 16951 1650 -11375 11375 11375.333 -1650 -16951 -16480"/>
    </vehicle>
    <vehicle id="246" depart="246.00">
        <route edges="-907 -906 -905 -17276 -17275 -17235 17235 17275"/>
    </vehicle>
    <vehicle id="254" depart="254.00">
        <route edges="15930 17354 15912 15913 15914 17275 17276 16480 16951 1650 14392"/>
    </vehicle>
    <vehicle id="256" depart="256.00">
        <route edges="17276 16480 16951 1650 -11375 11375 11375.333 -1650 -16951 -16480 -17276 -17275 79"/>
    </vehicle>
    <vehicle id="258" depart="258.00">
        <route edges="31313 31291 17234 17235 17275"/>
    </vehicle>
    <vehicle id="260" depart="260.00">
        <route edges="17235 17275 17276 16480 16951 1650 -11375 11375 11375.333 -1650 -16951 -16480 -17276 -17275 -17235 -17234 -31291 -31313 -31312"/>
    </vehicle>
    <vehicle id="262" depart="262.00">
        <route edges="17332 17319 17318 17316 17317 17315 17234 17235 17275 17276 16480 16951 1650 14392"/>
    </vehicle>
    <vehicle id="264" depart="264.00">
        <route edges="-905 -17276 -17275 79"/>
    </vehicle>
    <vehicle id="266" depart="266.00">
        <route edges="-14393 -14392"/>
    </vehicle>
    <vehicle id="270" depart="270.00">
        <route edges="-1650 -16951 -16480"/>
    </vehicle>
    <vehicle id="271" depart="271.00">
        <route edges="-907 -906 -905 -17276 -17275 -17235 -17234 -17315 -17317 -17316 -17318 -17319 -17332"/>
    </vehicle>
    <vehicle id="273" depart="273.00">
        <route edges="15913 15914 17275 17276 16480 16951 1650 -11375 11375 11375.333 -1650 -16951 -16480 -17276"/>
    </vehicle>
    <vehicle id="274" depart="274.00">
        <route edges="15914 17275 17276 16480 16951 1650"/>
    </vehicle>
    <vehicle id="277" depart="277.00">
        <route edges="-905 -17276 -17275 79"/>
    </vehicle>
    <vehicle id="278" depart="278.00">
        <route edges="15913 15914 -17235 17235 79"/>
    </vehicle>
    <vehicle id="280" depart="280.00">
        <route edges="15929 15930 17354 15912 15913"/>
    </vehicle>
    <vehicle id="282" depart="282.00">
        <route edges="15912 15913 15914 17275 17276 -16037 -16037.238 -16229"/>
    </vehicle>
    <vehicle id="283" depart="283.00">
        <route edges="31312 31313 31291 17234 17235 17275 17276 16480 16951 1650"/>
    </vehicle>
    <vehicle id="287" depart="287.00">
        <route edges="15913 15914 17275 17276 16480 16951 1650"/>
    </vehicle>
    <vehicle id="289" depart="289.00">
        <route edges="17332 17319 17318 17316 17317 17315 17234 17235 79 428"/>
    </vehicle>
    <vehicle id="290" depart="290.00">
        <route edges="-17315 -17317 -17316 -17318"/>
    </vehicle>
    <vehicle id="291" depart="291.00">
        <route edges="17316 17317"/>
    </vehicle>
    <vehicle id="293" depart="293.00">
        <route edges="17319 17318 17316 17317 17315 -31291 -31313 -31312"/>
    </vehicle>
    <vehicle id="296" depart="296.00">
        <route edges="-17275 -17235 -17234 -17315 -17317"/>
    </vehicle>
    <vehicle id="299" depart="299.00">
        <route edges="-907 -906 -905 16480 16951 1650"/>
    </vehicle>
    <vehicle id="300" depart="300.00">
        <route edges="-14392.168"/>
    </vehicle>
    <vehicle id="302" depart="302.00">
        <route edges="17318 17316 17317 17315 17234 17235 17275 17276 -16037"/>
    </vehicle>
    <vehicle id="303" depart="303.00">
        <route edges="31291 17234 17235 17275 17276 16480 16951 1650 -11375 11375 11375.333 -1650 -16951 -16480 -17276 -17275 -17235 -17234 -31291 -31313"/>
    </vehicle>
    <vehicle id="305" depart="305.00">
        <route edges="17354 15912 15913 15914"/>
    </vehicle>
    <vehicle id="306" depart="306.00">
        <route edges="-14392.168 -1650 -16951 -16480 -16037 -16037.238 -16229 -16228"/>
    </vehicle>
    <vehicle id="313" depart="313.00">
        <route edges="17317 17315 17234 17235 17275 17276 16480 16951 1650 -11375 11375 11375.333 -1650 -16951 -16480 -17276 -17275"/>
    </vehicle>
    <vehicle id="314" depart="314.00">
        <route edges="-14392 -14392.168 -1650 -16951 -16480 -17276 -17275"/>
    </vehicle>
    <vehicle id="315" depart="315.00">
        <route edges="-17317 -17316 -17318 -17319 -17332 -17331"/>
    </vehicle>
    <vehicle id="316" depart="316.00">
        <route edges="-1527 14392 14393"/>
    </vehicle>
    <vehicle id="318" depart="318.00">
        <route edges="17331 17332 17319 17318 17316 17317 17315 17234 17235 17275 17276 16480 16951 1650"/>
    </vehicle>
    <vehicle id="319" depart="319.00">
        <route edges="17235 17275 17276 16480 16951 1650 -11375 11375 11375.333 -1650 -16951 -16480 -17276 -17275 -17235 -17234 9904"/>
    </vehicle>
    <vehicle id="320" depart="320.00">
        <route edges="17234 17235 17275 17276 16480 16951 1650 -11375 11375 11375.333 -1650 -16951 -16480 -17276 -17275 -17235 -17234 9904"/>
    </vehicle>
    <vehicle id="322" depart="322.00">
        <route edges="17315 17234 17235 17275 17276 16480 16951"/>
    </vehicle>
    <vehicle id="323" depart="323.00">
        <route edges="31312 31313 31291 -17315 -17317"/>
    </vehicle>
    <vehicle id="324" depart="324.00">
        <route edges="-16951 -16480 -17276 -17275 -17235 -17234"/>
    </vehicle>
    <vehicle id="325" depart="325.00">
        <route edges="31291 17234 17235 17275"/>
    </vehicle>
    <vehicle id="331" depart="331.00">
        <route edges="-1527 -1650 -16951 -16480 -17276 -17275 -17235 -17234 -17315 -17317 -17316 -17318 -17319 -17332 -17331"/>
    </vehicle>
    <vehicle id="335" depart="335.00">
        <route edges="15929 15930 17354 15912 15913 15914 17275 17276 16480 16951 1650 -11375 11375 11375.333 -1650 -16951 -16480 -17276"/>
    </vehicle>
    <vehicle id="336" depart="336.00">
        <route edges="-9904 -17315 -17317 -17316 -17318 -17319"/>
    </vehicle>
    <vehicle id="337" depart="337.00">
        <route edges="16480 16951 1650 -11375 11375 11375.333 -1650 -16951 -16480 -17276 -17275 79"/>
    </vehicle>
    <vehicle id="339" depart="339.00">
        <route edges="15930 17354 15912 15913 15914 17275 17276 16480 16951 1650 -11375 11375 11375.333"/>
    </vehicle>
    <vehicle id="341" depart="341.00">
        <route edges="17235 17275 17276 -16037 -16037.238"/>
    </vehicle>
    <vehicle id="343" depart="343.00">
        <route edges="15914 17275 17276 16480 16951 1650 14392"/>
    </vehicle>
    <vehicle id="344" depart="344.00">
        <route edges="-14392 -14392.168 -11375"/>
    </vehicle>
    <vehicle id="345" depart="345.00">
        <route edges="-906 -905 16480 16951 1650 -11375 11375 11375.333 -1650"/>
    </vehicle>
    <vehicle id="346" depart="346.00">
        <route edges="15930 17354 15912 15913 15914 -17235 -17234 -17315 -17317 -17316 -17318 -17319"/>
    </vehicle>
    <vehicle id="348" depart="348.00">
        <route edges="15914 17275 17276 16480 16951 1650 -11375"/>
    </vehicle>
    <vehicle id="349" depart="349.00">
        <route edges="17318 17316 17317 17315 17234 17235 17275 17276 16480 16951 1650"/>
    </vehicle>
    <vehicle id="353" depart="353.00">
        <route edges="11375 11375.333 -1650 -16951 -16480 -17276 -17275 -17235 17235 17275 17276"/>
    </vehicle>
    <vehicle id="357" depart="357.00">
        <route edges="-31291 -31313"/>
    </vehicle>
    <vehicle id="358" depart="358.00">
        <route edges="-16951 -16480 -17276 -17275 -17235 17235 17275"/>
    </vehicle>
    <vehicle id="359" depart="359.00">
        <route edges="31291 17234 17235 17275 17276 16480 16951 1650 -11375 11375 11375.333 -1650 -16951 -16480 -17276 -17275 -17235 -17234"/>
    </vehicle>
    <vehicle id="360" depart="360.00">
        <route edges="17332 17319 17318 17316 17317 17315 17234 17235 17275 17276 16480 16951 1650 -11375 11375 11375.333 -1650 -16951 -16480 -17276 -17275"/>
    </vehicle>
    <vehicle id="363" depart="363.00">
        <route edges="17275 17276 -16037 -16037.238"/>
    </vehicle>
    <vehicle id="364" depart="364.00">
        <route edges="31312 31313 31291 -17315 -17317 -17316"/>
    </vehicle>
    <vehicle id="370" depart="370.00">
        <route edges="1650 -11375 11375 11375.333 -1650 -16951 -16480 -17276 -17275 -17235 17235 17275 17276"/>
    </vehicle>
    <vehicle id="371" depart="371.00">
        <route edges="-907 -906 -905 -17276 -17275 -17235 17235 17275 17276 -16037 -16037.238 -16229"/>
    </vehicle>
    <vehicle id="372" depart="372.00">
        <route edges="-17235 17235 17275 17276 -16037 -16037.238"/>
    </vehicle>
    <vehicle id="375" depart="375.00">
        <route edges="-905 -17276 -17275 -17235 -17234 -17315 -17317"/>
    </vehicle>
    <vehicle id="377" depart="377.00">
        <route edges="17318 17316 17317 17315 17234 17235 79"/>
    </vehicle>
    <vehicle id="379" depart="379.00">
        <route edges="-17275 -17235"/>
    </vehicle>
    <vehicle id="381" depart="381.00">
        <route edges="17234 17235 17275 17276 16480 16951 1650 -11375 11375 11375.333 -1650 -16951 -16480 -17276 -17275 -17235 -17234 -17315 -17317 -17316 -17318 -17319 -17332"/>
    </vehicle>
    <vehicle id="382" depart="382.00">
        <route edges="17275 17276 16480 16951 1650 -11375 11375 11375.333 -1650 -16951 -16480 -17276 -17275 -17235 17235"/>
    </vehicle>
    <vehicle id="383" depart="383.00">
        <route edges="-17234 -17315 -17317 -17316 -17318 -17319"/>
    </vehicle>
    <vehicle id="384" depart="384.00">
        <route edges="11375 11375.333 -1650 -16951 -16480 -17276 -17275 -17235 17235 17275"/>
    </vehicle>
    <vehicle id="385" depart="385.00">
        <route edges="17315 17234 17235 17275 17276 -16037 -16037.238 -16229 -16228"/>
    </vehicle>
    <vehicle id="386" depart="386.00">
        <route edges="15912 15913 15914 17275 17276 16480 16951 1650 -11375 11375 11375.333 -1650 -16951 -16480 -17276"/>
    </vehicle>
    <vehicle id="392" depart="392.00">
        <route edges="15912 15913 15914 -17235 17235 79 428"/>
    </vehicle>
    <vehicle id="396" depart="396.00">
        <route edges="-17275 -17235 17235 17275 17276 16480"/>
    </vehicle>
    <vehicle id="397" depart="397.00">
        <route edges="17318 17316 17317 17315 17234 17235 17275 17276 16480 16951 1650 -11375 11375 11375.333 -1650 -16951 -16480 -17276 -17275"/>
    </vehicle>
    <vehicle id="400" depart="400.00">
        <route edges="-908 -907 -906 -905 -17276 -17275 -17235 -17234 -17315 -17317 -17316"/>
    </vehicle>
    <vehicle id="401" depart="401.00">
        <route edges="17275 17276 16480 16951 1650 -11375 11375 11375.333 -1650 -16951 -16480 -17276 -17275 -17235 -17234 -17315 -17317 -17316 -17318 -17319 -17332"/>
    </vehicle>
    <vehicle id="402" depart="402.00">