<?xml version="1.0" encoding="UTF-8"?>

<!-- generated on 2023-07-31 01:05:07 by Eclipse SUMO netconvert Version 1.18.0
<configuration xmlns:xsi="http://www.w3.org/2001/XMLSchema-instance" xsi:noNamespaceSchemaLocation="http://sumo.dlr.de/xsd/netconvertConfiguration.xsd">

    <input>
        <opendrive-files value="elevation.xodr"/>
    </input>

    <output>
        <output-file value="elevation.net.xml"/>
    </output>

    <processing>
        <offset.disable-normalization value="true"/>
    </processing>

    <junctions>
        <no-turnarounds.except-deadend value="true"/>
    </junctions>

</configuration>
-->

<net version="1.16" junctionCornerDetail="5" rectangularLaneCut="true" limitTurnSpeed="5.50" xmlns:xsi="http://www.w3.org/2001/XMLSchema-instance" xsi:noNamespaceSchemaLocation="http://sumo.dlr.de/xsd/net_file.xsd">

    <location netOffset="0.00,0.00" convBoundary="0.00,-28.69,3909.11,0.00" origBoundary="0.00,-28.69,3909.11,0.00" projParameter="!"/>

    <type id="driving" priority="1" speed="13.89" disallow="pedestrian tram rail_urban rail rail_electric rail_fast ship" width="3.65"/>

    <edge id=":2.begin_0" function="internal">
        <lane id=":2.begin_0_0" index="0" disallow="pedestrian tram rail_urban rail rail_electric rail_fast ship" speed="13.89" length="5.11" width="3.50" shape="0.01,1.75 -1.31,0.89 -1.75,0.01 -1.32,-0.86 -0.01,-1.75"/>
    </edge>
    <edge id=":3.end_0" function="internal">
        <lane id=":3.end_0_0" index="0" disallow="pedestrian tram rail_urban rail rail_electric rail_fast ship" speed="13.89" length="5.11" width="3.50" shape="3909.09,-30.44,0.00 3910.41,-29.57,0.00 3910.86,-28.70,0.00 3910.43,-27.82,0.00 3909.12,-26.94,0.00"/>
    </edge>
    <edge id=":4_0" function="internal">
        <lane id=":4_0_0" index="0" disallow="pedestrian tram rail_urban rail rail_electric rail_fast ship" speed="13.89" length="4.62" width="3.50" shape="306.91,-0.35 302.30,-0.66"/>
    </edge>
    <edge id=":4_1" function="internal">
        <lane id=":4_1_0" index="0" disallow="pedestrian tram rail_urban rail rail_electric rail_fast ship" speed="13.89" length="4.62" width="3.50" shape="302.27,-4.16 306.89,-3.84,-0.00"/>
    </edge>

    <edge id="-2" from="2.begin" to="4" priority="1" type="driving" shape="0.00,0.00 302.29,-2.41">
        <lane id="-2_0" index="0" disallow="pedestrian tram rail_urban rail rail_electric rail_fast ship" speed="13.89" length="302.30" width="3.50" shape="-0.01,-1.75 302.27,-4.16" type="driving"/>
    </edge>
    <edge id="-3" from="4" to="3.end" priority="1" type="driving" shape="306.90,-2.10 308.90,-2.11,0.00 310.90,-2.12,0.02 312.90,-2.14,0.04 314.90,-2.15,0.06 316.90,-2.17,0.10 318.89,-2.18,0.14 320.89,-2.20,0.19 322.89,-2.21,0.24 324.89,-2.23,0.30 326.89,-2.24,0.37 328.89,-2.26,0.44 330.89,-2.27,0.51 332.89,-2.29,0.60 334.89,-2.30,0.68 336.89,-2.32,0.77 338.88,-2.33,0.87 340.88,-2.35,0.97 342.88,-2.36,1.07 344.88,-2.38,1.18 346.88,-2.39,1.29 348.88,-2.40,1.40 350.88,-2.42,1.52 352.88,-2.43,1.64 354.88,-2.45,1.75 356.88,-2.46,1.88 358.87,-2.48,2.00 360.87,-2.49,2.13 362.87,-2.51,2.25 364.87,-2.52,2.38 366.87,-2.54,2.50 368.87,-2.55,2.63 370.87,-2.57,2.76 372.87,-2.58,2.89 374.87,-2.60,3.01 376.87,-2.61,3.14 378.86,-2.63,3.27 380.86,-2.64,3.39 382.86,-2.66,3.51 384.86,-2.67,3.63 386.86,-2.69,3.75 388.86,-2.70,3.87 390.86,-2.71,3.98 392.86,-2.73,4.09 394.86,-2.74,4.20 396.86,-2.76,4.30 398.85,-2.77,4.40 400.85,-2.79,4.50 402.85,-2.80,4.59 404.85,-2.82,4.68 406.85,-2.83,4.76 408.85,-2.85,4.84 410.85,-2.86,4.91 412.85,-2.88,4.98 414.85,-2.89,5.04 416.85,-2.91,5.10 418.84,-2.92,5.15 420.84,-2.94,5.19 422.84,-2.95,5.23 424.84,-2.97,5.26 426.84,-2.98,5.29 428.84,-3.00,5.32 430.84,-3.01,5.34 432.84,-3.02,5.35 434.84,-3.04,5.36 436.84,-3.05,5.36 438.83,-3.07,5.36 440.83,-3.08,5.36 442.83,-3.10,5.35 444.83,-3.11,5.33 446.83,-3.13,5.31 448.83,-3.14,5.29 450.83,-3.16,5.27 452.83,-3.17,5.24 454.83,-3.19,5.20 456.83,-3.20,5.17 458.82,-3.22,5.13 460.82,-3.23,5.08 462.82,-3.25,5.03 464.82,-3.26,4.98 466.82,-3.28,4.93 468.82,-3.29,4.87 470.82,-3.31,4.82 472.82,-3.32,4.75 474.82,-3.33,4.69 476.82,-3.35,4.62 478.81,-3.36,4.55 480.81,-3.38,4.48 482.81,-3.39,4.41 484.81,-3.41,4.33 486.81,-3.42,4.25 488.81,-3.44,4.17 490.81,-3.45,4.09 492.81,-3.47,4.01 494.81,-3.48,3.92 496.81,-3.50,3.83 498.80,-3.51,3.75 500.80,-3.53,3.66 502.80,-3.54,3.57 504.80,-3.56,3.47 506.80,-3.57,3.38 508.80,-3.59,3.29 510.80,-3.60,3.20 512.80,-3.62,3.10 514.80,-3.63,3.01 516.80,-3.64,2.91 518.79,-3.66,2.82 520.79,-3.67,2.72 522.79,-3.69,2.62 524.79,-3.70,2.53 526.79,-3.72,2.43 528.79,-3.73,2.34 530.79,-3.75,2.24 532.79,-3.76,2.15 534.79,-3.78,2.06 536.79,-3.79,1.96 538.78,-3.81,1.87 540.78,-3.82,1.78 542.78,-3.84,1.69 544.78,-3.85,1.60 546.78,-3.87,1.51 548.78,-3.88,1.43 550.78,-3.90,1.34 552.78,-3.91,1.26 554.78,-3.93,1.18 556.78,-3.94,1.10 558.77,-3.95,1.02 560.77,-3.97,0.94 562.77,-3.98,0.87 564.77,-4.00,0.80 566.77,-4.01,0.73 568.77,-4.03,0.66 570.77,-4.04,0.60 572.77,-4.06,0.54 574.77,-4.07,0.48 576.77,-4.09,0.42 578.76,-4.10,0.37 580.76,-4.12,0.32 582.76,-4.13,0.27 584.76,-4.15,0.23 586.76,-4.16,0.19 588.76,-4.18,0.15 590.76,-4.19,0.12 592.76,-4.21,0.09 594.76,-4.22,0.06 596.76,-4.23,0.04 598.75,-4.25,0.03 600.75,-4.26,0.01 602.75,-4.28,0.00 604.75,-4.29,-0.00 606.75,-4.31,-0.00 608.75,-4.32,0.00 610.75,-4.34,0.01 612.75,-4.35,0.03 614.75,-4.37,0.05 616.75,-4.38,0.07 618.74,-4.40,0.09 620.74,-4.41,0.13 622.74,-4.43,0.16 624.74,-4.44,0.20 626.74,-4.46,0.24 628.74,-4.47,0.29 630.74,-4.49,0.34 632.74,-4.50,0.39 634.74,-4.52,0.45 636.74,-4.53,0.51 638.73,-4.54,0.58 640.73,-4.56,0.64 642.73,-4.57,0.71 644.73,-4.59,0.79 646.73,-4.60,0.87 648.73,-4.62,0.95 650.73,-4.63,1.03 652.73,-4.65,1.12 654.73,-4.66,1.20 656.73,-4.68,1.30 658.72,-4.69,1.39 660.72,-4.71,1.49 662.72,-4.72,1.59 664.72,-4.74,1.69 666.72,-4.75,1.79 668.72,-4.77,1.90 670.72,-4.78,2.01 672.72,-4.80,2.12 674.72,-4.81,2.23 676.72,-4.83,2.34 678.71,-4.84,2.46 680.71,-4.85,2.58 682.71,-4.87,2.70 684.71,-4.88,2.82 686.71,-4.90,2.94 688.71,-4.91,3.06 690.71,-4.93,3.19 692.71,-4.94,3.32 694.71,-4.96,3.44 696.71,-4.97,3.57 698.70,-4.99,3.70 700.70,-5.00,3.83 702.70,-5.02,3.96 704.70,-5.03,4.10 706.70,-5.05,4.23 708.70,-5.06,4.36 710.70,-5.08,4.50 712.70,-5.09,4.63 714.70,-5.11,4.77 716.70,-5.12,4.90 718.70,-5.14,5.04 720.69,-5.15,5.17 722.69,-5.16,5.31 724.69,-5.18,5.44 726.69,-5.19,5.58 728.69,-5.21,5.71 730.69,-5.22,5.85 732.69,-5.24,5.98 734.69,-5.25,6.12 736.69,-5.27,6.25 738.69,-5.28,6.39 740.68,-5.30,6.52 742.68,-5.31,6.65 744.68,-5.33,6.78 746.68,-5.34,6.91 748.68,-5.36,7.04 750.68,-5.37,7.17 752.68,-5.39,7.29 754.68,-5.40,7.42 756.68,-5.42,7.54 758.68,-5.43,7.67 760.67,-5.45,7.79 762.67,-5.46,7.91 764.67,-5.47,8.03 766.67,-5.49,8.14 768.67,-5.50,8.26 770.67,-5.52,8.37 772.67,-5.53,8.48 774.67,-5.55,8.59 776.67,-5.56,8.70 778.67,-5.58,8.80 780.66,-5.59,8.91 782.66,-5.61,9.01 784.66,-5.62,9.10 786.66,-5.64,9.20 788.66,-5.65,9.29 790.66,-5.67,9.38 792.66,-5.68,9.47 794.66,-5.70,9.55 796.66,-5.71,9.63 798.66,-5.73,9.71 800.65,-5.74,9.79 802.65,-5.76,9.86 804.65,-5.77,9.93 806.65,-5.78,9.99 808.65,-5.80,10.05 810.65,-5.81,10.11 812.65,-5.83,10.17 814.65,-5.84,10.22 816.65,-5.86,10.27 818.65,-5.87,10.32 820.64,-5.89,10.36 822.64,-5.90,10.40 824.64,-5.92,10.43 826.64,-5.93,10.47 828.64,-5.95,10.50 830.64,-5.96,10.52 832.64,-5.98,10.55 834.64,-5.99,10.57 836.64,-6.01,10.59 838.64,-6.02,10.60 840.63,-6.04,10.62 842.63,-6.05,10.63 844.63,-6.07,10.63 846.63,-6.08,10.64 848.63,-6.09,10.64 850.63,-6.11,10.64 852.63,-6.12,10.64 854.63,-6.14,10.63 856.63,-6.15,10.62 858.63,-6.17,10.61 860.62,-6.18,10.60 862.62,-6.20,10.59 864.62,-6.21,10.57 866.62,-6.23,10.55 868.62,-6.24,10.53 870.62,-6.26,10.50 872.62,-6.27,10.48 874.62,-6.29,10.45 876.62,-6.30,10.42 878.62,-6.32,10.38 880.61,-6.33,10.35 882.61,-6.35,10.31 884.61,-6.36,10.27 886.61,-6.37,10.23 888.61,-6.39,10.19 890.61,-6.40,10.15 892.61,-6.42,10.10 894.61,-6.43,10.05 896.61,-6.45,10.00 898.61,-6.46,9.95 900.60,-6.48,9.90 902.60,-6.49,9.85 904.60,-6.51,9.79 906.60,-6.52,9.73 908.60,-6.54,9.67 910.60,-6.55,9.61 912.60,-6.57,9.55 914.60,-6.58,9.49 916.60,-6.60,9.42 918.60,-6.61,9.36 920.59,-6.63,9.29 922.59,-6.64,9.22 924.59,-6.66,9.15 926.59,-6.67,9.08 928.59,-6.68,9.01 930.59,-6.70,8.94 932.59,-6.71,8.87 934.59,-6.73,8.79 936.59,-6.74,8.72 938.59,-6.76,8.64 940.58,-6.77,8.56 942.58,-6.79,8.48 944.58,-6.80,8.41 946.58,-6.82,8.33 948.58,-6.83,8.25 950.58,-6.85,8.17 952.58,-6.86,8.08 954.58,-6.88,8.00 956.58,-6.89,7.92 958.58,-6.91,7.84 960.57,-6.92,7.75 962.57,-6.94,7.67 964.57,-6.95,7.58 966.57,-6.97,7.50 968.57,-6.98,7.41 970.57,-6.99,7.33 972.57,-7.01,7.24 974.57,-7.02,7.16 976.57,-7.04,7.07 978.57,-7.05,6.99 980.56,-7.07,6.90 982.56,-7.08,6.81 984.56,-7.10,6.73 986.56,-7.11,6.64 988.56,-7.13,6.56 990.56,-7.14,6.47 992.56,-7.16,6.38 994.56,-7.17,6.30 996.56,-7.19,6.21 998.56,-7.20,6.13 1000.55,-7.22,6.04 1002.55,-7.23,5.96 1004.55,-7.25,5.87 1006.55,-7.26,5.79 1008.55,-7.28,5.71 1010.55,-7.29,5.62 1012.55,-7.30,5.54 1014.55,-7.32,5.46 1016.55,-7.33,5.38 1018.55,-7.35,5.30 1020.54,-7.36,5.22 1022.54,-7.38,5.14 1024.54,-7.39,5.06 1026.54,-7.41,4.99 1028.54,-7.42,4.91 1030.54,-7.44,4.83 1032.54,-7.45,4.76 1034.54,-7.47,4.69 1036.54,-7.48,4.61 1038.54,-7.50,4.54 1040.53,-7.51,4.47 1042.53,-7.53,4.40 1044.53,-7.54,4.33 1046.53,-7.56,4.27 1048.53,-7.57,4.20 1050.53,-7.59,4.14 1052.53,-7.60,4.07 1054.53,-7.61,4.01 1056.53,-7.63,3.95 1058.53,-7.64,3.89 1060.52,-7.66,3.83 1062.52,-7.67,3.78 1064.52,-7.69,3.72 1066.52,-7.70,3.67 1068.52,-7.72,3.62 1070.52,-7.73,3.57 1072.52,-7.75,3.52 1074.52,-7.76,3.47 1076.52,-7.78,3.43 1078.52,-7.79,3.39 1080.51,-7.81,3.35 1082.51,-7.82,3.31 1084.51,-7.84,3.27 1086.51,-7.85,3.24 1088.51,-7.87,3.20 1090.51,-7.88,3.17 1092.51,-7.90,3.14 1094.51,-7.91,3.12 1096.51,-7.92,3.09 1098.51,-7.94,3.07 1100.50,-7.95,3.05 1102.50,-7.97,3.03 1104.50,-7.98,3.02 1106.50,-8.00,3.00 1108.50,-8.01,2.99 1110.50,-8.03,2.98 1112.50,-8.04,2.98 1114.50,-8.06,2.97 1116.50,-8.07,2.97 1118.50,-8.09,2.97 1120.49,-8.10,2.98 1122.49,-8.12,2.98 1124.49,-8.13,2.99 1126.49,-8.15,3.00 1128.49,-8.16,3.01 1130.49,-8.18,3.02 1132.49,-8.19,3.04 1134.49,-8.20,3.05 1136.49,-8.22,3.07 1138.49,-8.23,3.09 1140.49,-8.25,3.12 1142.48,-8.26,3.14 1144.48,-8.28,3.17 1146.48,-8.29,3.20 1148.48,-8.31,3.23 1150.48,-8.32,3.26 1152.48,-8.34,3.29 1154.48,-8.35,3.33 1156.48,-8.37,3.36 1158.48,-8.38,3.40 1160.48,-8.40,3.44 1162.47,-8.41,3.48 1164.47,-8.43,3.52 1166.47,-8.44,3.57 1168.47,-8.46,3.61 1170.47,-8.47,3.66 1172.47,-8.49,3.71 1174.47,-8.50,3.76 1176.47,-8.51,3.81 1178.47,-8.53,3.86 1180.47,-8.54,3.91 1182.46,-8.56,3.96 1184.46,-8.57,4.02 1186.46,-8.59,4.07 1188.46,-8.60,4.13 1190.46,-8.62,4.19 1192.46,-8.63,4.25 1194.46,-8.65,4.31 1196.46,-8.66,4.37 1198.46,-8.68,4.43 1200.46,-8.69,4.49 1202.45,-8.71,4.55 1204.45,-8.72,4.62 1206.45,-8.74,4.68 1208.45,-8.75,4.75 1210.45,-8.77,4.81 1212.45,-8.78,4.88 1214.45,-8.80,4.94 1216.45,-8.81,5.01 1218.45,-8.82,5.08 1220.45,-8.84,5.15 1222.44,-8.85,5.21 1224.44,-8.87,5.28 1226.44,-8.88,5.35 1228.44,-8.90,5.42 1230.44,-8.91,5.49 1232.44,-8.93,5.56 1234.44,-8.94,5.63 1236.44,-8.96,5.70 1238.44,-8.97,5.77 1240.44,-8.99,5.84 1242.43,-9.00,5.91 1244.43,-9.02,5.98 1246.43,-9.03,6.05 1248.43,-9.05,6.12 1250.43,-9.06,6.20 1252.43,-9.08,6.27 1254.43,-9.09,6.34 1256.43,-9.11,6.41 1258.43,-9.12,6.48 1260.43,-9.13,6.54 1262.42,-9.15,6.61 1264.42,-9.16,6.68 1266.42,-9.18,6.75 1268.42,-9.19,6.82 1270.42,-9.21,6.89 1272.42,-9.22,6.95 1274.42,-9.24,7.02 1276.42,-9.25,7.09 1278.42,-9.27,7.15 1280.42,-9.28,7.22 1282.41,-9.30,7.28 1284.41,-9.31,7.34 1286.41,-9.33,7.41 1288.41,-9.34,7.47 1290.41,-9.36,7.53 1292.41,-9.37,7.59 1294.41,-9.39,7.65 1296.41,-9.40,7.71 1298.41,-9.42,7.77 1300.41,-9.43,7.82 1302.40,-9.44,7.88 1304.40,-9.46,7.93 1306.40,-9.47,7.99 1308.40,-9.49,8.04 1310.40,-9.50,8.09 1312.40,-9.52,8.14 1314.40,-9.53,8.19 1316.40,-9.55,8.24 1318.40,-9.56,8.29 1320.40,-9.58,8.33 1322.39,-9.59,8.38 1324.39,-9.61,8.42 1326.39,-9.62,8.46 1328.39,-9.64,8.51 1330.39,-9.65,8.55 1332.39,-9.67,8.59 1334.39,-9.68,8.62 1336.39,-9.70,8.66 1338.39,-9.71,8.70 1340.39,-9.73,8.73 1342.38,-9.74,8.77 1344.38,-9.75,8.80 1346.38,-9.77,8.84 1348.38,-9.78,8.87 1350.38,-9.80,8.90 1352.38,-9.81,8.93 1354.38,-9.83,8.96 1356.38,-9.84,8.98 1358.38,-9.86,9.01 1360.38,-9.87,9.04 1362.37,-9.89,9.06 1364.37,-9.90,9.09 1366.37,-9.92,9.11 1368.37,-9.93,9.13 1370.37,-9.95,9.15 1372.37,-9.96,9.17 1374.37,-9.98,9.19 1376.37,-9.99,9.21 1378.37,-10.01,9.23 1380.37,-10.02,9.25 1382.36,-10.04,9.26 1384.36,-10.05,9.28 1386.36,-10.06,9.29 1388.36,-10.08,9.31 1390.36,-10.09,9.32 1392.36,-10.11,9.33 1394.36,-10.12,9.34 1396.36,-10.14,9.36 1398.36,-10.15,9.36 1400.36,-10.17,9.37 1402.35,-10.18,9.38 1404.35,-10.20,9.39 1406.35,-10.21,9.40 1408.35,-10.23,9.40 1410.35,-10.24,9.41 1412.35,-10.26,9.41 1414.35,-10.27,9.41 1416.35,-10.29,9.42 1418.35,-10.30,9.42 1420.35,-10.32,9.42 1422.34,-10.33,9.42 1424.34,-10.34,9.42 1426.34,-10.36,9.42 1428.34,-10.37,9.42 1430.34,-10.39,9.42 1432.34,-10.40,9.41 1434.34,-10.42,9.41 1436.34,-10.43,9.41 1438.34,-10.45,9.40 1440.34,-10.46,9.40 1442.33,-10.48,9.39 1444.33,-10.49,9.38 1446.33,-10.51,9.38 1448.33,-10.52,9.37 1450.33,-10.54,9.36 1452.33,-10.55,9.35 1454.33,-10.57,9.34 1456.33,-10.58,9.33 1458.33,-10.60,9.32 1460.33,-10.61,9.31 1462.32,-10.63,9.30 1464.32,-10.64,9.29 1466.32,-10.65,9.27 1468.32,-10.67,9.26 1470.32,-10.68,9.24 1472.32,-10.70,9.23 1474.32,-10.71,9.21 1476.32,-10.73,9.20 1478.32,-10.74,9.18 1480.32,-10.76,9.17 1482.31,-10.77,9.15 1484.31,-10.79,9.13 1486.31,-10.80,9.11 1488.31,-10.82,9.09 1490.31,-10.83,9.08 1492.31,-10.85,9.06 1494.31,-10.86,9.04 1496.31,-10.88,9.02 1498.31,-10.89,8.99 1500.31,-10.91,8.97 1502.30,-10.92,8.95 1504.30,-10.94,8.93 1506.30,-10.95,8.91 1508.30,-10.96,8.88 1510.30,-10.98,8.86 1512.30,-10.99,8.84 1514.30,-11.01,8.81 1516.30,-11.02,8.79 1518.30,-11.04,8.76 1520.30,-11.05,8.74 1522.29,-11.07,8.71 1524.29,-11.08,8.69 1526.29,-11.10,8.66 1528.29,-11.11,8.63 1530.29,-11.13,8.61 1532.29,-11.14,8.58 1534.29,-11.16,8.55 1536.29,-11.17,8.52 1538.29,-11.19,8.49 1540.29,-11.20,8.47 1542.29,-11.22,8.44 1544.28,-11.23,8.41 1546.28,-11.25,8.38 1548.28,-11.26,8.35 1550.28,-11.27,8.32 1552.28,-11.29,8.29 1554.28,-11.30,8.26 1556.28,-11.32,8.23 1558.28,-11.33,8.20 1560.28,-11.35,8.17 1562.28,-11.36,8.14 1564.27,-11.38,8.11 1566.27,-11.39,8.07 1568.27,-11.41,8.04 1570.27,-11.42,8.01 1572.27,-11.44,7.98 1574.27,-11.45,7.95 1576.27,-11.47,7.91 1578.27,-11.48,7.88 1580.27,-11.50,7.85 1582.27,-11.51,7.82 1584.26,-11.53,7.78 1586.26,-11.54,7.75 1588.26,-11.56,7.72 1590.26,-11.57,7.68 1592.26,-11.58,7.65 1594.26,-11.60,7.62 1596.26,-11.61,7.58 1598.26,-11.63,7.55 1600.26,-11.64,7.52 1602.26,-11.66,7.48 1604.25,-11.67,7.45 1606.25,-11.69,7.41 1608.25,-11.70,7.38 1610.25,-11.72,7.35 1612.25,-11.73,7.31 1614.25,-11.75,7.28 1616.25,-11.76,7.24 1618.25,-11.78,7.21 1620.25,-11.79,7.18 1622.25,-11.81,7.14 1624.24,-11.82,7.11 1626.24,-11.84,7.07 1628.24,-11.85,7.04 1630.24,-11.87,7.01 1632.24,-11.88,6.97 1634.24,-11.89,6.94 1636.24,-11.91,6.90 1638.24,-11.92,6.87 1640.24,-11.94,6.84 1642.24,-11.95,6.80 1644.23,-11.97,6.77 1646.23,-11.98,6.74 1648.23,-12.00,6.70 1650.23,-12.01,6.67 1652.23,-12.03,6.64 1654.23,-12.04,6.60 1656.23,-12.06,6.57 1658.23,-12.07,6.54 1660.23,-12.09,6.51 1662.23,-12.10,6.47 1664.22,-12.12,6.44 1666.22,-12.13,6.41 1668.22,-12.15,6.38 1670.22,-12.16,6.35 1672.22,-12.17,6.31 1674.22,-12.19,6.28 1676.22,-12.20,6.25 1678.22,-12.22,6.22 1680.22,-12.23,6.19 1682.22,-12.25,6.16 1684.21,-12.26,6.13 1686.21,-12.28,6.10 1688.21,-12.29,6.07 1690.21,-12.31,6.04 1692.21,-12.32,6.01 1694.21,-12.34,5.98 1696.21,-12.35,5.95 1698.21,-12.37,5.92 1700.21,-12.38,5.90 1702.21,-12.40,5.87 1704.20,-12.41,5.84 1706.20,-12.43,5.81 1708.20,-12.44,5.79 1710.20,-12.46,5.76 1712.20,-12.47,5.73 1714.20,-12.48,5.71 1716.20,-12.50,5.68 1718.20,-12.51,5.66 1720.20,-12.53,5.63 1722.20,-12.54,5.61 1724.19,-12.56,5.58 1726.19,-12.57,5.56 1728.19,-12.59,5.54 1730.19,-12.60,5.51 1732.19,-12.62,5.49 1734.19,-12.63,5.47 1736.19,-12.65,5.45 1738.19,-12.66,5.43 1740.19,-12.68,5.40 1742.19,-12.69,5.38 1744.18,-12.71,5.36 1746.18,-12.72,5.34 1748.18,-12.74,5.32 1750.18,-12.75,5.31 1752.18,-12.77,5.29 1754.18,-12.78,5.27 1756.18,-12.79,5.25 1758.18,-12.81,5.24 1760.18,-12.82,5.22 1762.18,-12.84,5.20 1764.17,-12.85,5.19 1766.17,-12.87,5.17 1768.17,-12.88,5.16 1770.17,-12.90,5.15 1772.17,-12.91,5.13 1774.17,-12.93,5.12 1776.17,-12.94,5.11 1778.17,-12.96,5.10 1780.17,-12.97,5.09 1782.17,-12.99,5.08 1784.16,-13.00,5.07 1786.16,-13.02,5.06 1788.16,-13.03,5.05 1790.16,-13.05,5.04 1792.16,-13.06,5.03 1794.16,-13.08,5.03 1796.16,-13.09,5.02 1798.16,-13.10,5.02 1800.16,-13.12,5.01 1802.16,-13.13,5.01 1804.15,-13.15,5.00 1806.15,-13.16,5.00 1808.15,-13.18,5.00 1810.15,-13.19,5.00 1812.15,-13.21,5.00 1814.15,-13.22,5.00 1816.15,-13.24,5.00 1818.15,-13.25,5.00 1820.15,-13.27,5.00 1822.15,-13.28,5.00 1824.14,-13.30,5.01 1826.14,-13.31,5.01 1828.14,-13.33,5.01 1830.14,-13.34,5.02 1832.14,-13.36,5.02 1834.14,-13.37,5.03 1836.14,-13.39,5.04 1838.14,-13.40,5.05 1840.14,-13.41,5.05 1842.14,-13.43,5.06 1844.13,-13.44,5.07 1846.13,-13.46,5.08 1848.13,-13.47,5.09 1850.13,-13.49,5.10 1852.13,-13.50,5.12 1854.13,-13.52,5.13 1856.13,-13.53,5.14 1858.13,-13.55,5.15 1860.13,-13.56,5.17 1862.13,-13.58,5.18 1864.12,-13.59,5.20 1866.12,-13.61,5.21 1868.12,-13.62,5.23 1870.12,-13.64,5.25 1872.12,-13.65,5.26 1874.12,-13.67,5.28 1876.12,-13.68,5.30 1878.12,-13.70,5.32 1880.12,-13.71,5.34 1882.12,-13.72,5.36 1884.11,-13.74,5.38 1886.11,-13.75,5.40 1888.11,-13.77,5.42 1890.11,-13.78,5.45 1892.11,-13.80,5.47 1894.11,-13.81,5.49 1896.11,-13.83,5.52 1898.11,-13.84,5.54 1900.11,-13.86,5.56 1902.11,-13.87,5.59 1904.10,-13.89,5.61 1906.10,-13.90,5.64 1908.10,-13.92,5.67 1910.10,-13.93,5.69 1912.10,-13.95,5.72 1914.10,-13.96,5.75 1916.10,-13.98,5.78 1918.10,-13.99,5.81 1920.10,-14.01,5.84 1922.10,-14.02,5.87 1924.09,-14.03,5.90 1926.09,-14.05,5.93 1928.09,-14.06,5.96 1930.09,-14.08,5.99 1932.09,-14.09,6.02 1934.09,-14.11,6.05 1936.09,-14.12,6.09 1938.09,-14.14,6.12 1940.09,-14.15,6.15 1942.09,-14.17,6.19 1944.09,-14.18,6.22 1946.08,-14.20,6.26 1948.08,-14.21,6.29 1950.08,-14.23,6.33 1952.08,-14.24,6.36 1954.08,-14.26,6.40 1956.08,-14.27,6.44 1958.08,-14.29,6.47 1960.08,-14.30,6.51 1962.08,-14.31,6.55 1964.08,-14.33,6.59 1966.07,-14.34,6.63 1968.07,-14.36,6.67 1970.07,-14.37,6.70 1972.07,-14.39,6.74 1974.07,-14.40,6.78 1976.07,-14.42,6.82 1978.07,-14.43,6.86 1980.07,-14.45,6.91 1982.07,-14.46,6.95 1984.07,-14.48,6.99 1986.06,-14.49,7.03 1988.06,-14.51,7.07 1990.06,-14.52,7.12 1992.06,-14.54,7.16 1994.06,-14.55,7.20 1996.06,-14.57,7.24 1998.06,-14.58,7.29 2000.06,-14.60,7.33 2002.06,-14.61,7.38 2004.06,-14.62,7.42 2006.05,-14.64,7.47 2008.05,-14.65,7.51 2010.05,-14.67,7.56 2012.05,-14.68,7.60 2014.05,-14.70,7.65 2016.05,-14.71,7.69 2018.05,-14.73,7.74 2020.05,-14.74,7.79 2022.05,-14.76,7.83 2024.05,-14.77,7.88 2026.04,-14.79,7.93 2028.04,-14.80,7.98 2030.04,-14.82,8.02 2032.04,-14.83,8.07 2034.04,-14.85,8.12 2036.04,-14.86,8.17 2038.04,-14.88,8.22 2040.04,-14.89,8.27 2042.04,-14.91,8.32 2044.04,-14.92,8.36 2046.03,-14.93,8.41 2048.03,-14.95,8.46 2050.03,-14.96,8.51 2052.03,-14.98,8.56 2054.03,-14.99,8.61 2056.03,-15.01,8.66 2058.03,-15.02,8.72 2060.03,-15.04,8.77 2062.03,-15.05,8.82 2064.03,-15.07,8.87 2066.02,-15.08,8.92 2068.02,-15.10,8.97 2070.02,-15.11,9.02 2072.02,-15.13,9.07 2074.02,-15.14,9.13 2076.02,-15.16,9.18 2078.02,-15.17,9.23 2080.02,-15.19,9.28 2082.02,-15.20,9.33 2084.02,-15.22,9.39 2086.01,-15.23,9.44 2088.01,-15.24,9.49 2090.01,-15.26,9.54 2092.01,-15.27,9.60 2094.01,-15.29,9.65 2096.01,-15.30,9.70 2098.01,-15.32,9.76 2100.01,-15.33,9.81 2102.01,-15.35,9.86 2104.01,-15.36,9.92 2106.00,-15.38,9.97 2108.00,-15.39,10.02 2110.00,-15.41,10.08 2112.00,-15.42,10.13 2114.00,-15.44,10.18 2116.00,-15.45,10.24 2118.00,-15.47,10.29 2120.00,-15.48,10.34 2122.00,-15.50,10.40 2124.00,-15.51,10.45 2125.99,-15.53,10.51 2127.99,-15.54,10.56 2129.99,-15.55,10.61 2131.99,-15.57,10.67 2133.99,-15.58,10.72 2135.99,-15.60,10.78 2137.99,-15.61,10.83 2139.99,-15.63,10.88 2141.99,-15.64,10.94 2143.99,-15.66,10.99 2145.98,-15.67,11.05 2147.98,-15.69,11.10 2149.98,-15.70,11.15 2151.98,-15.72,11.21 2153.98,-15.73,11.26 2155.98,-15.75,11.32 2157.98,-15.76,11.37 2159.98,-15.78,11.42 2161.98,-15.79,11.48 2163.98,-15.81,11.53 2165.97,-15.82,11.59 2167.97,-15.84,11.64 2169.97,-15.85,11.69 2171.97,-15.86,11.75 2173.97,-15.88,11.80 2175.97,-15.89,11.85 2177.97,-15.91,11.91 2179.97,-15.92,11.96 2181.97,-15.94,12.01 2183.97,-15.95,12.07 2185.96,-15.97,12.12 2187.96,-15.98,12.17 2189.96,-16.00,12.22 2191.96,-16.01,12.28 2193.96,-16.03,12.33 2195.96,-16.04,12.38 2197.96,-16.06,12.43 2199.96,-16.07,12.49 2201.96,-16.09,12.54 2203.96,-16.10,12.59 2205.95,-16.12,12.64 2207.95,-16.13,12.69 2209.95,-16.15,12.75 2211.95,-16.16,12.80 2213.95,-16.17,12.85 2215.95,-16.19,12.90 2217.95,-16.20,12.95 2219.95,-16.22,13.00 2221.95,-16.23,13.05 2223.95,-16.25,13.10 2225.94,-16.26,13.15 2227.94,-16.28,13.20 2229.94,-16.29,13.25 2231.94,-16.31,13.30 2233.94,-16.32,13.35 2235.94,-16.34,13.40 2237.94,-16.35,13.45 2239.94,-16.37,13.50 2241.94,-16.38,13.55 2243.94,-16.40,13.60 2245.93,-16.41,13.65 2247.93,-16.43,13.70 2249.93,-16.44,13.74 2251.93,-16.45,13.79 2253.93,-16.47,13.84 2255.93,-16.48,13.89 2257.93,-16.50,13.93 2259.93,-16.51,13.98 2261.93,-16.53,14.03 2263.93,-16.54,14.07 2265.92,-16.56,14.12 2267.92,-16.57,14.16 2269.92,-16.59,14.21 2271.92,-16.60,14.26 2273.92,-16.62,14.30 2275.92,-16.63,14.35 2277.92,-16.65,14.39 2279.92,-16.66,14.43 2281.92,-16.68,14.48 2283.92,-16.69,14.52 2285.91,-16.71,14.56 2287.91,-16.72,14.61 2289.91,-16.74,14.65 2291.91,-16.75,14.69 2293.91,-16.76,14.74 2295.91,-16.78,14.78 2297.91,-16.79,14.82 2299.91,-16.81,14.86 2301.91,-16.82,14.90 2303.91,-16.84,14.94 2305.90,-16.85,14.98 2307.90,-16.87,15.02 2309.90,-16.88,15.06 2311.90,-16.90,15.10 2313.90,-16.91,15.14 2315.90,-16.93,15.18 2317.90,-16.94,15.22 2319.90,-16.96,15.25 2321.90,-16.97,15.29 2323.90,-16.99,15.33 2325.89,-17.00,15.36 2327.89,-17.02,15.40 2329.89,-17.03,15.44 2331.89,-17.05,15.47 2333.89,-17.06,15.51 2335.89,-17.07,15.54 2337.89,-17.09,15.58 2339.89,-17.10,15.61 2341.89,-17.12,15.65 2343.89,-17.13,15.68 2345.88,-17.15,15.71 2347.88,-17.16,15.75 2349.88,-17.18,15.78 2351.88,-17.19,15.81 2353.88,-17.21,15.85 2355.88,-17.22,15.88 2357.88,-17.24,15.91 2359.88,-17.25,15.94 2361.88,-17.27,15.97 2363.88,-17.28,16.00 2365.88,-17.30,16.03 2367.87,-17.31,16.06 2369.87,-17.33,16.09 2371.87,-17.34,16.12 2373.87,-17.36,16.15 2375.87,-17.37,16.18 2377.87,-17.38,16.21 2379.87,-17.40,16.24 2381.87,-17.41,16.26 2383.87,-17.43,16.29 2385.87,-17.44,16.32 2387.86,-17.46,16.35 2389.86,-17.47,16.37 2391.86,-17.49,16.40 2393.86,-17.50,16.42 2395.86,-17.52,16.45 2397.86,-17.53,16.48 2399.86,-17.55,16.50 2401.86,-17.56,16.52 2403.86,-17.58,16.55 2405.86,-17.59,16.57 2407.85,-17.61,16.60 2409.85,-17.62,16.62 2411.85,-17.64,16.64 2413.85,-17.65,16.67 2415.85,-17.67,16.69 2417.85,-17.68,16.71 2419.85,-17.69,16.73 2421.85,-17.71,16.76 2423.85,-17.72,16.78 2425.85,-17.74,16.80 2427.84,-17.75,16.82 2429.84,-17.77,16.84 2431.84,-17.78,16.86 2433.84,-17.80,16.88 2435.84,-17.81,16.90 2437.84,-17.83,16.92 2439.84,-17.84,16.94 2441.84,-17.86,16.96 2443.84,-17.87,16.97 2445.84,-17.89,16.99 2447.83,-17.90,17.01 2449.83,-17.92,17.03 2451.83,-17.93,17.05 2453.83,-17.95,17.06 2455.83,-17.96,17.08 2457.83,-17.98,17.10 2459.83,-17.99,17.11 2461.83,-18.00,17.13 2463.83,-18.02,17.14 2465.83,-18.03,17.16 2467.82,-18.05,17.17 2469.82,-18.06,17.19 2471.82,-18.08,17.20 2473.82,-18.09,17.22 2475.82,-18.11,17.23 2477.82,-18.12,17.24 2479.82,-18.14,17.26 2481.82,-18.15,17.27 2483.82,-18.17,17.28 2485.82,-18.18,17.30 2487.81,-18.20,17.31 2489.81,-18.21,17.32 2491.81,-18.23,17.33 2493.81,-18.24,17.34 2495.81,-18.26,17.36 2497.81,-18.27,17.37 2499.81,-18.28,17.38 2501.81,-18.30,17.39 2503.81,-18.31,17.40 2505.81,-18.33,17.41 2507.80,-18.34,17.42 2509.80,-18.36,17.43 2511.80,-18.37,17.44 2513.80,-18.39,17.44 2515.80,-18.40,17.45 2517.80,-18.42,17.46 2519.80,-18.43,17.47 2521.80,-18.45,17.48 2523.80,-18.46,17.48 2525.80,-18.48,17.49 2527.79,-18.49,17.50 2529.79,-18.51,17.50 2531.79,-18.52,17.51 2533.79,-18.54,17.52 2535.79,-18.55,17.52 2537.79,-18.57,17.53 2539.79,-18.58,17.53 2541.79,-18.59,17.54 2543.79,-18.61,17.54 2545.79,-18.62,17.55 2547.78,-18.64,17.55 2549.78,-18.65,17.56 2551.78,-18.67,17.56 2553.78,-18.68,17.56 2555.78,-18.70,17.57 2557.78,-18.71,17.57 2559.78,-18.73,17.57 2561.78,-18.74,17.58 2563.78,-18.76,17.58 2565.78,-18.77,17.58 2567.77,-18.79,17.58 2569.77,-18.80,17.58 2571.77,-18.82,17.59 2573.77,-18.83,17.59 2575.77,-18.85,17.59 2577.77,-18.86,17.59 2579.77,-18.88,17.59 2581.77,-18.89,17.59 2583.77,-18.90,17.59 2585.77,-18.92,17.59 2587.76,-18.93,17.59 2589.76,-18.95,17.59 2591.76,-18.96,17.59 2593.76,-18.98,17.59 2595.76,-18.99,17.58 2597.76,-19.01,17.58 2599.76,-19.02,17.58 2601.76,-19.04,17.58 2603.76,-19.05,17.58 2605.76,-19.07,17.57 2607.75,-19.08,17.57 2609.75,-19.10,17.57 2611.75,-19.11,17.56 2613.75,-19.13,17.56 2615.75,-19.14,17.56 2617.75,-19.16,17.55 2619.75,-19.17,17.55 2621.75,-19.19,17.54 2623.75,-19.20,17.54 2625.75,-19.21,17.53 2627.74,-19.23,17.53 2629.74,-19.24,17.52 2631.74,-19.26,17.52 2633.74,-19.27,17.51 2635.74,-19.29,17.51 2637.74,-19.30,17.50 2639.74,-19.32,17.49 2641.74,-19.33,17.49 2643.74,-19.35,17.48 2645.74,-19.36,17.47 2647.73,-19.38,17.47 2649.73,-19.39,17.46 2651.73,-19.41,17.45 2653.73,-19.42,17.44 2655.73,-19.44,17.43 2657.73,-19.45,17.43 2659.73,-19.47,17.42 2661.73,-19.48,17.41 2663.73,-19.50,17.40 2665.73,-19.51,17.39 2667.72,-19.52,17.38 2669.72,-19.54,17.37 2671.72,-19.55,17.36 2673.72,-19.57,17.35 2675.72,-19.58,17.34 2677.72,-19.60,17.33 2679.72,-19.61,17.32 2681.72,-19.63,17.31 2683.72,-19.64,17.30 2685.72,-19.66,17.29 2687.71,-19.67,17.27 2689.71,-19.69,17.26 2691.71,-19.70,17.25 2693.71,-19.72,17.24 2695.71,-19.73,17.23 2697.71,-19.75,17.21 2699.71,-19.76,17.20 2701.71,-19.78,17.19 2703.71,-19.79,17.17 2705.71,-19.81,17.16 2707.70,-19.82,17.15 2709.70,-19.83,17.13 2711.70,-19.85,17.12 2713.70,-19.86,17.11 2715.70,-19.88,17.09 2717.70,-19.89,17.08 2719.70,-19.91,17.06 2721.70,-19.92,17.05 2723.70,-19.94,17.03 2725.70,-19.95,17.02 2727.69,-19.97,17.00 2729.69,-19.98,16.99 2731.69,-20.00,16.97 2733.69,-20.01,16.95 2735.69,-20.03,16.94 2737.69,-20.04,16.92 2739.69,-20.06,16.91 2741.69,-20.07,16.89 2743.69,-20.09,16.87 2745.69,-20.10,16.85 2747.68,-20.12,16.84 2749.68,-20.13,16.82 2751.68,-20.14,16.80 2753.68,-20.16,16.78 2755.68,-20.17,16.77 2757.68,-20.19,16.75 2759.68,-20.20,16.73 2761.68,-20.22,16.71 2763.68,-20.23,16.69 2765.68,-20.25,16.67 2767.68,-20.26,16.66 2769.67,-20.28,16.64 2771.67,-20.29,16.62 2773.67,-20.31,16.60 2775.67,-20.32,16.58 2777.67,-20.34,16.56 2779.67,-20.35,16.54 2781.67,-20.37,16.52 2783.67,-20.38,16.50 2785.67,-20.40,16.48 2787.67,-20.41,16.46 2789.66,-20.42,16.43 2791.66,-20.44,16.41 2793.66,-20.45,16.39 2795.66,-20.47,16.37 2797.66,-20.48,16.35 2799.66,-20.50,16.33 2801.66,-20.51,16.31 2803.66,-20.53,16.28 2805.66,-20.54,16.26 2807.66,-20.56,16.24 2809.65,-20.57,16.22 2811.65,-20.59,16.19 2813.65,-20.60,16.17 2815.65,-20.62,16.15 2817.65,-20.63,16.13 2819.65,-20.65,16.10 2821.65,-20.66,16.08 2823.65,-20.68,16.06 2825.65,-20.69,16.03 2827.65,-20.71,16.01 2829.64,-20.72,15.98 2831.64,-20.73,15.96 2833.64,-20.75,15.93 2835.64,-20.76,15.91 2837.64,-20.78,15.89 2839.64,-20.79,15.86 2841.64,-20.81,15.84 2843.64,-20.82,15.81 2845.64,-20.84,15.79 2847.64,-20.85,15.76 2849.63,-20.87,15.73 2851.63,-20.88,15.71 2853.63,-20.90,15.68 2855.63,-20.91,15.66 2857.63,-20.93,15.63 2859.63,-20.94,15.61 2861.63,-20.96,15.58 2863.63,-20.97,15.55 2865.63,-20.99,15.53 2867.63,-21.00,15.50 2869.62,-21.02,15.47 2871.62,-21.03,15.45 2873.62,-21.04,15.42 2875.62,-21.06,15.39 2877.62,-21.07,15.36 2879.62,-21.09,15.34 2881.62,-21.10,15.31 2883.62,-21.12,15.28 2885.62,-21.13,15.25 2887.62,-21.15,15.22 2889.61,-21.16,15.20 2891.61,-21.18,15.17 2893.61,-21.19,15.14 2895.61,-21.21,15.11 2897.61,-21.22,15.08 2899.61,-21.24,15.05 2901.61,-21.25,15.02 2903.61,-21.27,14.99 2905.61,-21.28,14.97 2907.61,-21.30,14.94 2909.60,-21.31,14.91 2911.60,-21.33,14.88 2913.60,-21.34,14.85 2915.60,-21.35,14.82 2917.60,-21.37,14.79 2919.60,-21.38,14.76 2921.60,-21.40,14.73 2923.60,-21.41,14.70 2925.60,-21.43,14.67 2927.60,-21.44,14.64 2929.59,-21.46,14.60 2931.59,-21.47,14.57 2933.59,-21.49,14.54 2935.59,-21.50,14.51 2937.59,-21.52,14.48 2939.59,-21.53,14.45 2941.59,-21.55,14.42 2943.59,-21.56,14.39 2945.59,-21.58,14.36 2947.59,-21.59,14.32 2949.58,-21.61,14.29 2951.58,-21.62,14.26 2953.58,-21.64,14.23 2955.58,-21.65,14.20 2957.58,-21.66,14.16 2959.58,-21.68,14.13 2961.58,-21.69,14.10 2963.58,-21.71,14.07 2965.58,-21.72,14.03 2967.58,-21.74,14.00 2969.57,-21.75,13.97 2971.57,-21.77,13.94 2973.57,-21.78,13.90 2975.57,-21.80,13.87 2977.57,-21.81,13.84 2979.57,-21.83,13.80 2981.57,-21.84,13.77 2983.57,-21.86,13.74 2985.57,-21.87,13.70 2987.57,-21.89,13.67 2989.56,-21.90,13.64 2991.56,-21.92,13.60 2993.56,-21.93,13.57 2995.56,-21.95,13.53 2997.56,-21.96,13.50 2999.56,-21.97,13.46 3001.56,-21.99,13.43 3003.56,-22.00,13.40 3005.56,-22.02,13.36 3007.56,-22.03,13.33 3009.55,-22.05,13.29 3011.55,-22.06,13.26 3013.55,-22.08,13.22 3015.55,-22.09,13.19 3017.55,-22.11,13.15 3019.55,-22.12,13.12 3021.55,-22.14,13.08 3023.55,-22.15,13.05 3025.55,-22.17,13.01 3027.55,-22.18,12.98 3029.54,-22.20,12.94 3031.54,-22.21,12.91 3033.54,-22.23,12.87 3035.54,-22.24,12.83 3037.54,-22.25,12.80 3039.54,-22.27,12.76 3041.54,-22.28,12.73 3043.54,-22.30,12.69 3045.54,-22.31,12.65 3047.54,-22.33,12.62 3049.53,-22.34,12.58 3051.53,-22.36,12.55 3053.53,-22.37,12.51 3055.53,-22.39,12.47 3057.53,-22.40,12.44 3059.53,-22.42,12.40 3061.53,-22.43,12.36 3063.53,-22.45,12.33 3065.53,-22.46,12.29 3067.53,-22.48,12.25 3069.52,-22.49,12.22 3071.52,-22.51,12.18 3073.52,-22.52,12.14 3075.52,-22.54,12.10 3077.52,-22.55,12.07 3079.52,-22.56,12.03 3081.52,-