<?xml version="1.0" encoding="UTF-8"?>

<!-- generated on 2022-12-26 15:17:48 by Eclipse SUMO netedit Version 1.13.0
-->

<routes xmlns:xsi="http://www.w3.org/2001/XMLSchema-instance" xsi:noNamespaceSchemaLocation="http://sumo.dlr.de/xsd/routes_file.xsd">
    <!-- VTypes -->
    <vType id="v_custom1" vClass="custom1"/>
    <vType id="v_passenger" vClass="passenger"/>
    <vType id="v_private" vClass="private"/>
    <vType id="v_truck" vClass="truck"/>
    <!-- Vehicles, persons and containers (sorted by depart) -->
    <trip id="t_passenger" type="v_passenger" depart="5" departSpeed="desired" from="E0" to="E3"/>
	<trip id="t_private" type="v_private" depart="15" departSpeed="desired" from="E0" to="E3"/>
    <trip id="t_truck" type="v_truck" depart="25" departSpeed="desired" from="E0" to="E3"/>
    <trip id="t_custom1" type="v_custom1" depart="35" departSpeed="desired" from="E0" to="E3"/>


</routes>
 