<?xml version="1.0" encoding="UTF-8"?>

<!-- generated on 2023-10-19 11:51:17 by Eclipse SUMO netedit Version 1.18.0
-->

<routes xmlns:xsi="http://www.w3.org/2001/XMLSchema-instance" xsi:noNamespaceSchemaLocation="http://sumo.dlr.de/xsd/routes_file.xsd">
    <!-- VTypes -->
    <vType id="v_custom1" vClass="custom1"/>
    <vType id="v_passenger" vClass="passenger"/>
    <vType id="v_private" vClass="private"/>
    <vType id="v_truck" vClass="truck"/>
    <!-- Routes -->
    <route id="r_0" edges="E0 E0.110 E0.262 E0.451 E3 E3.280"/>
    <route id="r_1" edges="E0 E0.110 E0.262 E0.451 E1"/>
    <route id="r_2" edges="E0 E0.110 E0.262 E0.451 E2"/>
    <route id="r_3" edges="-E1 E3"/>
    <route id="r_4" edges="-E1 E2"/>
    <route id="r_5" edges="-E2 E3"/>
    <route id="r_6" edges="-E2 E1"/>
    <!-- Vehicles, persons and containers (sorted by depart) -->
    <flow id="f_0" begin="0.00" route="r_0" end="3600.00" vehsPerHour="1000.00"/>
    <flow id="f_1" begin="0.00" route="r_1" end="3600.00" vehsPerHour="200.00"/>
	<flow id="f_2" begin="0.00" route="r_2" end="3600.00" vehsPerHour="200.00"/>
    <flow id="f_3" begin="0.00" route="r_3" end="3600.00" vehsPerHour="100.00"/>
    <flow id="f_4" begin="0.00" route="r_4" end="3600.00" vehsPerHour="100.00"/>
    <flow id="f_5" begin="0.00" route="r_5" end="3600.00" vehsPerHour="100.00"/>
    <flow id="f_6" begin="0.00" route="r_6" end="3600.00" vehsPerHour="100.00"/>
    <trip id="t_passenger" type="v_passenger" depart="5.00" departSpeed="desired" from="E0" to="E3"/>
    <trip id="t_private" type="v_private" depart="15.00" departSpeed="desired" from="E0" to="E3"/>
    <trip id="t_truck" type="v_truck" depart="25.00" departSpeed="desired" from="E0" to="E3"/>
    <trip id="t_custom1" type="v_custom1" depart="35.00" departSpeed="desired" from="E0" to="E3"/>
</routes>
