<?xml version="1.0" encoding="UTF-8"?>

<!-- generated on 2022-09-12 17:11:28 by Eclipse SUMO netconvert Version 1.13.0
<configuration xmlns:xsi="http://www.w3.org/2001/XMLSchema-instance" xsi:noNamespaceSchemaLocation="http://sumo.dlr.de/xsd/netconvertConfiguration.xsd">

    <input>
        <vissim-file value="MLKCorridor_PMpeak_volume_turn_pop.inpx"/>
    </input>

    <output>
        <opendrive-output value="..\HIL-Operation\Data\Road\MLKCorridor.xodr"/>
    </output>

    <processing>
        <offset.disable-normalization value="true"/>
    </processing>

    <building_defaults>
        <default.speed value="13.4112"/>
    </building_defaults>

    <junctions>
        <no-internal-links value="false"/>
        <rectangular-lane-cut value="true"/>
    </junctions>

    <formats>
        <vissim.default-speed value="48.2803"/>
    </formats>

    <report>
        <aggregate-warnings value="5"/>
    </report>

</configuration>
-->

<OpenDRIVE>
    <header revMajor="1" revMinor="4" name="" version="1.00" date="Mon Sep 12 17:11:28 2022" north="616.17" south="-655.46" east="1604.08" west="-1497.13"/>
    <road name="Central Ave" length="238.60856051" id="3350" junction="-1">
        <link>
            <predecessor elementType="junction" elementId="1"/>
        </link>
        <type s="0" type="town"/>
        <planView>
            <geometry s="0.00000000" x="876.78463766" y="-327.15565734" hdg="1.14876140" length="238.60856051">
                <line/>
            </geometry>
        </planView>
        <elevationProfile>
            <elevation s="0" a="0.00" b="0" c="0" d="0"/>
        </elevationProfile>
        <lateralProfile/>
        <lanes>
            <laneSection s="0">
                <center>
                    <lane id="0" type="none" level="true">
                        <link/>
                        <roadMark sOffset="0" type="solid" weight="standard" color="standard" width="0.13"/>
                    </lane>
                </center>
                <right>
                    <lane id="-1" type="driving" level="true">
                        <link/>
                        <width sOffset="0" a="3.05" b="0" c="0" d="0"/>
                        <roadMark sOffset="0" type="broken" weight="standard" color="standard" width="0.13"/>
                        <speed sOffset="0" max="13.41"/>
                    </lane>
                    <lane id="-2" type="driving" level="true">
                        <link/>
                        <width sOffset="0" a="3.05" b="0" c="0" d="0"/>
                        <roadMark sOffset="0" type="solid" weight="standard" color="standard" width="0.13"/>
                        <speed sOffset="0" max="13.41"/>
                    </lane>
                 </right>
            </laneSection>
        </lanes>
        <objects/>
        <signals/>
    </road>
    <road name="Fairview Ave" length="100.48858276" id="3351" junction="-1">
        <link>
            <predecessor elementType="junction" elementId="2"/>
        </link>
        <type s="0" type="town"/>
        <planView>
            <geometry s="0.00000000" x="712.39031483" y="-279.35839834" hdg="-1.99914655" length="100.48858276">
                <line/>
            </geometry>
        </planView>
        <elevationProfile>
            <elevation s="0" a="0.00" b="0" c="0" d="0"/>
        </elevationProfile>
        <lateralProfile/>
        <lanes>
            <laneSection s="0">
                <center>
                    <lane id="0" type="none" level="true">
                        <link/>
                        <roadMark sOffset="0" type="solid" weight="standard" color="standard" width="0.13"/>
                    </lane>
                </center>
                <right>
                    <lane id="-1" type="driving" level="true">
                        <link/>
                        <width sOffset="0" a="3.05" b="0" c="0" d="0"/>
                        <roadMark sOffset="0" type="broken" weight="standard" color="standard" width="0.13"/>
                        <speed sOffset="0" max="13.41"/>
                    </lane>
                    <lane id="-2" type="driving" level="true">
                        <link/>
                        <width sOffset="0" a="3.05" b="0" c="0" d="0"/>
                        <roadMark sOffset="0" type="solid" weight="standard" color="standard" width="0.13"/>
                        <speed sOffset="0" max="13.41"/>
                    </lane>
                 </right>
            </laneSection>
        </lanes>
        <objects/>
        <signals/>
    </road>
    <road name="" length="25.90387616" id="3352" junction="-1">
        <link>
            <predecessor elementType="junction" elementId="3"/>
            <successor elementType="junction" elementId="4"/>
        </link>
        <type s="0" type="town"/>
        <planView>
            <geometry s="0.00000000" x="-798.74700966" y="282.66127193" hdg="1.65738971" length="25.90387616">
                <line/>
            </geometry>
        </planView>
        <elevationProfile>
            <elevation s="0" a="0.00" b="0" c="0" d="0"/>
        </elevationProfile>
        <lateralProfile/>
        <lanes>
            <laneSection s="0">
                <center>
                    <lane id="0" type="none" level="true">
                        <link/>
                        <roadMark sOffset="0" type="solid" weight="standard" color="standard" width="0.13"/>
                    </lane>
                </center>
                <right>
                    <lane id="-1" type="driving" level="true">
                        <link/>
                        <width sOffset="0" a="3.05" b="0" c="0" d="0"/>
                        <roadMark sOffset="0" type="broken" weight="standard" color="standard" width="0.13"/>
                        <speed sOffset="0" max="13.41"/>
                    </lane>
                    <lane id="-2" type="driving" level="true">
                        <link/>
                        <width sOffset="0" a="3.05" b="0" c="0" d="0"/>
                        <roadMark sOffset="0" type="broken" weight="standard" color="standard" width="0.13"/>
                        <speed sOffset="0" max="13.41"/>
                    </lane>
                    <lane id="-3" type="driving" level="true">
                        <link/>
                        <width sOffset="0" a="3.05" b="0" c="0" d="0"/>
                        <roadMark sOffset="0" type="solid" weight="standard" color="standard" width="0.13"/>
                        <speed sOffset="0" max="13.41"/>
                    </lane>
                 </right>
            </laneSection>
        </lanes>
        <objects/>
        <signals/>
    </road>
    <road name="" length="35.39251062" id="3353" junction="-1">
        <link>
            <predecessor elementType="junction" elementId="5"/>
            <successor elementType="junction" elementId="6"/>
        </link>
        <type s="0" type="town"/>
        <planView>
            <geometry s="0.00000000" x="-720.05591544" y="328.21619943" hdg="-3.11731213" length="5.95279804">
                <line/>
            </geometry>
            <geometry s="5.95279804" x="-726.00695885" y="328.07167657" hdg="-3.11731213" length="13.41113088">
                <paramPoly3 aU="-0.00000000" bU="10.05833565" cU="10.05833565" dU="-6.70563734" aV="0.00000000" bV="0.00000000" cV="0.06959137" dV="-0.02319740" pRange="normalized"/>
            </geometry>
            <geometry s="19.36392892" x="-739.41291344" y="327.69970132" hdg="-3.11039338" length="16.02858169">
                <line/>
            </geometry>
        </planView>
        <elevationProfile>
            <elevation s="0" a="0.00" b="0" c="0" d="0"/>
        </elevationProfile>
        <lateralProfile/>
        <lanes>
            <laneSection s="0">
                <center>
                    <lane id="0" type="none" level="true">
                        <link/>
                        <roadMark sOffset="0" type="solid" weight="standard" color="standard" width="0.13"/>
                    </lane>
                </center>
                <right>
                    <lane id="-1" type="driving" level="true">
                        <link/>
                        <width sOffset="0" a="3.05" b="0" c="0" d="0"/>
                        <roadMark sOffset="0" type="broken" weight="standard" color="standard" width="0.13"/>
                        <speed sOffset="0" max="13.41"/>
                    </lane>
                    <lane id="-2" type="driving" level="true">
                        <link/>
                        <width sOffset="0" a="3.05" b="0" c="0" d="0"/>
                        <roadMark sOffset="0" type="broken" weight="standard" color="standard" width="0.13"/>
                        <speed sOffset="0" max="13.41"/>
                    </lane>
                    <lane id="-3" type="driving" level="true">
                        <link/>
                        <width sOffset="0" a="2.50" b="0" c="0" d="0"/>
                        <roadMark sOffset="0" type="solid" weight="standard" color="standard" width="0.13"/>
                        <speed sOffset="0" max="13.41"/>
                    </lane>
                 </right>
            </laneSection>
        </lanes>
        <objects/>
        <signals/>
    </road>
    <road name="" length="19.37725296" id="3354" junction="-1">
        <link>
            <predecessor elementType="junction" elementId="6"/>
            <successor elementType="junction" elementId="4"/>
        </link>
        <type s="0" type="town"/>
        <planView>
            <geometry s="0.00000000" x="-763.27871114" y="323.51601956" hdg="-3.10419830" length="19.37725296">
                <line/>
            </geometry>
        </planView>
        <elevationProfile>
            <elevation s="0" a="0.00" b="0" c="0" d="0"/>
        </elevationProfile>
        <lateralProfile/>
        <lanes>
            <laneSection s="0">
                <center>
                    <lane id="0" type="none" level="true">
                        <link/>
                        <roadMark sOffset="0" type="solid" weight="standard" color="standard" width="0.13"/>
                    </lane>
                </center>
                <right>
                    <lane id="-1" type="driving" level="true">
                        <link/>
                        <width sOffset="0" a="3.05" b="0" c="0" d="0"/>
                        <roadMark sOffset="0" type="broken" weight="standard" color="standard" width="0.13"/>
                        <speed sOffset="0" max="13.41"/>
                    </lane>
                    <lane id="-2" type="driving" level="true">
                        <link/>
                        <width sOffset="0" a="3.05" b="0" c="0" d="0"/>
                        <roadMark sOffset="0" type="broken" weight="standard" color="standard" width="0.13"/>
                        <speed sOffset="0" max="13.41"/>
                    </lane>
                    <lane id="-3" type="driving" level="true">
                        <link/>
                        <width sOffset="0" a="3.05" b="0" c="0" d="0"/>
                        <roadMark sOffset="0" type="broken" weight="standard" color="standard" width="0.13"/>
                        <speed sOffset="0" max="13.41"/>
                    </lane>
                    <lane id="-4" type="driving" level="true">
                        <link/>
                        <width sOffset="0" a="2.50" b="0" c="0" d="0"/>
                        <roadMark sOffset="0" type="solid" weight="standard" color="standard" width="0.13"/>
                        <speed sOffset="0" max="13.41"/>
                    </lane>
                 </right>
            </laneSection>
        </lanes>
        <objects/>
        <signals/>
    </road>
    <road name="" length="38.32715251" id="3355" junction="-1">
        <link>
            <predecessor elementType="junction" elementId="4"/>
            <successor elementType="junction" elementId="7"/>
        </link>
        <type s="0" type="town"/>
        <planView>
            <geometry s="0.00000000" x="-782.57369255" y="322.24658859" hdg="0.04135637" length="38.32715251">
                <line/>
            </geometry>
        </planView>
        <elevationProfile>
            <elevation s="0" a="0.00" b="0" c="0" d="0"/>
        </elevationProfile>
        <lateralProfile/>
        <lanes>
            <laneSection s="0">
                <center>
                    <lane id="0" type="none" level="true">
                        <link/>
                        <roadMark sOffset="0" type="solid" weight="standard" color="standard" width="0.13"/>
                    </lane>
                </center>
                <right>
                    <lane id="-1" type="driving" level="true">
                        <link/>
                        <width sOffset="0" a="3.05" b="0" c="0" d="0"/>
                        <roadMark sOffset="0" type="broken" weight="standard" color="standard" width="0.13"/>
                        <speed sOffset="0" max="13.41"/>
                    </lane>
                    <lane id="-2" type="driving" level="true">
                        <link/>
                        <width sOffset="0" a="3.05" b="0" c="0" d="0"/>
                        <roadMark sOffset="0" type="broken" weight="standard" color="standard" width="0.13"/>
                        <speed sOffset="0" max="13.41"/>
                    </lane>
                    <lane id="-3" type="driving" level="true">
                        <link/>
                        <width sOffset="0" a="2.50" b="0" c="0" d="0"/>
                        <roadMark sOffset="0" type="solid" weight="standard" color="standard" width="0.13"/>
                        <speed sOffset="0" max="13.41"/>
                    </lane>
                 </right>
            </laneSection>
        </lanes>
        <objects/>
        <signals/>
    </road>
    <road name="" length="16.37538838" id="3356" junction="-1">
        <link>
            <predecessor elementType="junction" elementId="7"/>
            <successor elementType="junction" elementId="5"/>
        </link>
        <type s="0" type="town"/>
        <planView>
            <geometry s="0.00000000" x="-736.41173708" y="327.20741489" hdg="0.04129022" length="0.20000000">
                <line/>
            </geometry>
            <geometry s="0.20000000" x="-736.21190754" y="327.21567058" hdg="0.04129022" length="10.22128398">
                <paramPoly3 aU="0.00000000" bU="7.66590240" cU="7.66510540" dU="-5.11043847" aV="0.00000000" bV="0.00000000" cV="-0.21135898" dV="0.09752870" pRange="normalized"/>
            </geometry>
            <geometry s="10.42128398" x="-725.99535067" y="327.52382694" hdg="0.02431399" length="5.95410440">
                <line/>
            </geometry>
        </planView>
        <elevationProfile>
            <elevation s="0" a="0.00" b="0" c="0" d="0"/>
        </elevationProfile>
        <lateralProfile/>
        <lanes>
            <laneSection s="0">
                <center>
                    <lane id="0" type="none" level="true">
                        <link/>
                        <roadMark sOffset="0" type="solid" weight="standard" color="standard" width="0.13"/>
                    </lane>
                </center>
                <right>
                    <lane id="-1" type="driving" level="true">
                        <link/>
                        <width sOffset="0" a="3.05" b="0" c="0" d="0"/>
                        <roadMark sOffset="0" type="broken" weight="standard" color="standard" width="0.13"/>
                        <speed sOffset="0" max="13.41"/>
                    </lane>
                    <lane id="-2" type="driving" level="true">
                        <link/>
                        <width sOffset="0" a="3.05" b="0" c="0" d="0"/>
                        <roadMark sOffset="0" type="broken" weight="standard" color="standard" width="0.13"/>
                        <speed sOffset="0" max="13.41"/>
                    </lane>
                    <lane id="-3" type="driving" level="true">
                        <link/>
                        <width sOffset="0" a="3.05" b="0" c="0" d="0"/>
                        <roadMark sOffset="0" type="broken" weight="standard" color="standard" width="0.13"/>
                        <speed sOffset="0" max="13.41"/>
                    </lane>
                    <lane id="-4" type="driving" level="true">
                        <link/>
                        <width sOffset="0" a="2.50" b="0" c="0" d="0"/>
                        <roadMark sOffset="0" type="solid" weight="standard" color="standard" width="0.13"/>
                        <speed sOffset="0" max="13.41"/>
                    </lane>
                 </right>
            </laneSection>
        </lanes>
        <objects/>
        <signals/>
    </road>
    <road name="" length="265.71717420" id="3357" junction="-1">
        <link>
            <predecessor elementType="junction" elementId="8"/>
        </link>
        <type s="0" type="town"/>
        <planView>
            <geometry s="0.00000000" x="-903.16182860" y="340.48492053" hdg="1.57286133" length="12.08365027">
                <line/>
            </geometry>
            <geometry s="12.08365027" x="-903.18678141" y="352.56854504" hdg="1.57286133" length="13.41118180">
                <paramPoly3 aU="0.00000000" bU="10.05838522" cU="10.05836185" dU="-6.70558093" aV="-0.00000000" bV="-0.00000000" cV="0.03885249" dV="-0.01937204" pRange="normalized"/>
            </geometry>
            <geometry s="25.49483207" x="-903.23395596" y="365.97964237" hdg="1.57480885" length="6.93202959">
                <paramPoly3 aU="0.00000000" bU="5.19902170" cU="5.19902164" dU="-3.46601758" aV="-0.00000000" bV="0.00000000" cV="0.00998809" dV="-0.00335005" pRange="normalized"/>
            </geometry>
            <geometry s="32.42686166" x="-903.26840879" y="372.91158568" hdg="1.57671806" length="13.41118081">
                <paramPoly3 aU="0.00000000" bU="10.05838535" cU="10.05838535" dU="-6.70559186" aV="-0.00000000" bV="-0.00000000" cV="0.00989497" dV="-0.00329830" pRange="normalized"/>
            </geometry>
            <geometry s="45.83804247" x="-903.35442235" y="386.32249032" hdg="1.57770182" length="6.93211004">
                <paramPoly3 aU="0.00000000" bU="5.19908204" cU="5.19908199" dU="-3.46605778" aV="-0.00000000" bV="0.00000000" cV="0.00992561" dV="-0.00332889" pRange="normalized"/>
            </geometry>
            <geometry s="52.77015251" x="-903.40888818" y="393.25438574" hdg="1.57959919" length="13.41118098">
                <paramPoly3 aU="0.00000000" bU="10.05838548" cU="10.05838548" dU="-6.70559192" aV="-0.00000000" bV="0.00000000" cV="0.00983399" dV="-0.00327797" pRange="normalized"/>
            </geometry>
            <geometry s="66.18133348" x="-903.53349919" y="406.66498745" hdg="1.58057689" length="6.93219628">
                <paramPoly3 aU="0.00000000" bU="5.19914673" cU="5.19914667" dU="-3.46610086" aV="-0.00000000" bV="0.00000000" cV="0.00986414" dV="-0.00330807" pRange="normalized"/>
            </geometry>
            <geometry s="73.11352977" x="-903.60785461" y="413.59678431" hdg="1.58246260" length="13.41118114">
                <paramPoly3 aU="0.00000000" bU="10.05838561" cU="10.05838560" dU="-6.70559198" aV="-0.00000000" bV="0.00000000" cV="0.00978135" dV="-0.00326531" pRange="normalized"/>
            </geometry>
            <geometry s="86.52471091" x="-903.77082514" y="427.00697489" hdg="1.58343361" length="6.91653267">
                <paramPoly3 aU="0.00000000" bU="5.18739681" cU="5.18743197" dU="-3.45830277" aV="-0.00000000" bV="0.00000000" cV="-0.00193069" dV="0.00843701" pRange="normalized"/>
            </geometry>
            <geometry s="93.44124357" x="-903.86473471" y="433.92286641" hdg="1.58756858" length="13.41105394">
                <paramPoly3 aU="0.00000000" bU="10.05827794" cU="10.05843511" dU="-6.70569400" aV="-0.00000000" bV="0.00000000" cV="0.00101143" dV="0.02108185" pRange="normalized"/>
            </geometry>
            <geometry s="106.85229752" x="-904.11174731" y="447.33162866" hdg="1.59405765" length="158.86487669">
                <line/>
            </geometry>
        </planView>
        <elevationProfile>
            <elevation s="0" a="0.00" b="0" c="0" d="0"/>
        </elevationProfile>
        <lateralProfile/>
        <lanes>
            <laneSection s="0">
                <center>
                    <lane id="0" type="none" level="true">
                        <link/>
                        <roadMark sOffset="0" type="solid" weight="standard" color="standard" width="0.13"/>
                    </lane>
                </center>
                <right>
                    <lane id="-1" type="driving" level="true">
                        <link/>
                        <width sOffset="0" a="3.05" b="0" c="0" d="0"/>
                        <roadMark sOffset="0" type="broken" weight="standard" color="standard" width="0.13"/>
                        <speed sOffset="0" max="13.41"/>
                    </lane>
                    <lane id="-2" type="driving" level="true">
                        <link/>
                        <width sOffset="0" a="3.05" b="0" c="0" d="0"/>
                        <roadMark sOffset="0" type="broken" weight="standard" color="standard" width="0.13"/>
                        <speed sOffset="0" max="13.41"/>
                    </lane>
                    <lane id="-3" type="driving" level="true">
                        <link/>
                        <width sOffset="0" a="3.05" b="0" c="0" d="0"/>
                        <roadMark sOffset="0" type="solid" weight="standard" color="standard" width="0.13"/>
                        <speed sOffset="0" max="13.41"/>
                    </lane>
                 </right>
            </laneSection>
        </lanes>
        <objects/>
        <signals/>
    </road>
    <road name="" length="221.82344153" id="3358" junction="-1">
        <link>
            <successor elementType="junction" elementId="9"/>
        </link>
        <type s="0" type="town"/>
        <planView>
            <geometry s="0.00000000" x="-910.21239683" y="607.50517662" hdg="-1.54356493" length="221.82344153">
                <line/>
            </geometry>
        </planView>
        <elevationProfile>
            <elevation s="0" a="0.00" b="0" c="0" d="0"/>
        </elevationProfile>
        <lateralProfile/>
        <lanes>
            <laneSection s="0">
                <center>
                    <lane id="0" type="none" level="true">
                        <link/>
                        <roadMark sOffset="0" type="solid" weight="standard" color="standard" width="0.13"/>
                    </lane>
                </center>
                <right>
                    <lane id="-1" type="driving" level="true">
                        <link/>
                        <width sOffset="0" a="3.05" b="0" c="0" d="0"/>
                        <roadMark sOffset="0" type="broken" weight="standard" color="standard" width="0.13"/>
                        <speed sOffset="0" max="13.41"/>
                    </lane>
                    <lane id="-2" type="driving" level="true">
                        <link/>
                        <width sOffset="0" a="3.05" b="0" c="0" d="0"/>
                        <roadMark sOffset="0" type="solid" weight="standard" color="standard" width="0.13"/>
                        <speed sOffset="0" max="13.41"/>
                    </lane>
                 </right>
            </laneSection>
        </lanes>
        <objects/>
        <signals/>
    </road>
    <road name="" length="20.45851693" id="3359" junction="-1">
        <link>
            <predecessor elementType="junction" elementId="10"/>
            <successor elementType="junction" elementId="8"/>
        </link>
        <type s="0" type="town"/>
        <planView>
            <geometry s="0.00000000" x="-903.57969518" y="360.22341286" hdg="-1.56113616" length="1.75175914">
                <line/>
            </geometry>
            <geometry s="1.75175914" x="-903.56277316" y="358.47173545" hdg="-1.56113616" length="4.94932877">
                <paramPoly3 aU="0.00000000" bU="3.71186433" cU="3.71049066" dU="-2.47447977" aV="0.00000000" bV="0.00000000" cV="-0.20223133" dV="0.08980065" pRange="normalized"/>
            </geometry>
            <geometry s="6.70108791" x="-903.62740203" y="353.52300502" hdg="-1.59753041" length="4.96281915">
                <paramPoly3 aU="-0.00000000" bU="3.72202902" cU="3.72228020" dU="-2.48206536" aV="0.00000000" bV="-0.00000000" cV="-0.09270146" dV="0.02502321" pRange="normalized"/>
            </geometry>
            <geometry s="11.66390706" x="-903.82770134" y="348.56434344" hdg="-1.62717807" length="4.97451888">
                <paramPoly3 aU="-0.00000000" bU="3.73059642" cU="3.73387030" dU="-2.49097269" aV="0.00000000" bV="0.00000000" cV="-0.04186910" dV="-0.03757975" pRange="normalized"/>
            </geometry>
            <geometry s="16.63842594" x="-904.18728966" y="343.60322953" hdg="-1.67986895" length="3.82009099">
                <line/>
            </geometry>
        </planView>
        <elevationProfile>
            <elevation s="0" a="0.00" b="0" c="0" d="0"/>
        </elevationProfile>
        <lateralProfile/>
        <lanes>
            <laneSection s="0">
                <center>
                    <lane id="0" type="none" level="true">
                        <link/>
                        <roadMark sOffset="0" type="solid" weight="standard" color="standard" width="0.13"/>
                    </lane>
                </center>
                <right>
                    <lane id="-1" type="driving" level="true">
                        <link/>
                        <width sOffset="0" a="3.05" b="0" c="0" d="0"/>
                        <roadMark sOffset="0" type="broken" weight="standard" color="standard" width="0.13"/>
                        <speed sOffset="0" max="13.41"/>
                    </lane>
                    <lane id="-2" type="driving" level="true">
                        <link/>
                        <width sOffset="0" a="3.05" b="0" c="0" d="0"/>
                        <roadMark sOffset="0" type="solid" weight="standard" color="standard" width="0.13"/>
                        <speed sOffset="0" max="13.41"/>
                    </lane>
                 </right>
            </laneSection>
        </lanes>
        <objects/>
        <signals/>
    </road>
    <road name="" length="174.46723470" id="3360" junction="-1">
        <link>
            <predecessor elementType="junction" elementId="8"/>
        </link>
        <type s="0" type="town"/>
        <planView>
            <geometry s="0.00000000" x="-914.32657414" y="301.32319563" hdg="-1.99257947" length="174.46723470">
                <line/>
            </geometry>
        </planView>
        <elevationProfile>
            <elevation s="0" a="0.00" b="0" c="0" d="0"/>
        </elevationProfile>
        <lateralProfile/>
        <lanes>
            <laneSection s="0">
                <center>
                    <lane id="0" type="none" level="true">
                        <link/>
                        <roadMark sOffset="0" type="solid" weight="standard" color="standard" width="0.13"/>
                    </lane>
                </center>
                <right>
                    <lane id="-1" type="driving" level="true">
                        <link/>
                        <width sOffset="0" a="3.05" b="0" c="0" d="0"/>
                        <roadMark sOffset="0" type="broken" weight="standard" color="standard" width="0.13"/>
                        <speed sOffset="0" max="13.41"/>
                    </lane>
                    <lane id="-2" type="driving" level="true">
                        <link/>
                        <width sOffset="0" a="1.83" b="0" c="0" d="0"/>
                        <roadMark sOffset="0" type="broken" weight="standard" color="standard" width="0.13"/>
                        <speed sOffset="0" max="13.41"/>
                    </lane>
                    <lane id="-3" type="driving" level="true">
                        <link/>
                        <width sOffset="0" a="2.50" b="0" c="0" d="0"/>
                        <roadMark sOffset="0" type="solid" weight="standard" color="standard" width="0.13"/>
                        <speed sOffset="0" max="13.41"/>
                    </lane>
                 </right>
            </laneSection>
        </lanes>
        <objects/>
        <signals/>
    </road>
    <road name="" length="24.58116178" id="3361" junction="-1">
        <link>
            <successor elementType="junction" elementId="11"/>
        </link>
        <type s="0" type="town"/>
        <planView>
            <geometry s="0.00000000" x="-983.80103340" y="141.23317877" hdg="1.18457156" length="24.58116178">
                <line/>
            </geometry>
        </planView>
        <elevationProfile>
            <elevation s="0" a="0.00" b="0" c="0" d="0"/>
        </elevationProfile>
        <lateralProfile/>
        <lanes>
            <laneSection s="0">
                <center>
                    <lane id="0" type="none" level="true">
                        <link/>
                        <roadMark sOffset="0" type="solid" weight="standard" color="standard" width="0.13"/>
                    </lane>
                </center>
                <right>
                    <lane id="-1" type="driving" level="true">
                        <link/>
                        <width sOffset="0" a="3.05" b="0" c="0" d="0"/>
                        <roadMark sOffset="0" type="broken" weight="standard" color="standard" width="0.13"/>